<?xml version="1.0" encoding="UTF-8"?>

<!-- generated on 2023-10-11 17:20:19 by Eclipse SUMO duarouter Version 1.12.0
<configuration xmlns:xsi="http://www.w3.org/2001/XMLSchema-instance" xsi:noNamespaceSchemaLocation="http://sumo.dlr.de/xsd/duarouterConfiguration.xsd">

    <input>
        <net-file value="/home/eu/stop-detection/groundTruthGenerator/osmOutputDir/osm.net.xml"/>
        <route-files value="/home/eu/stop-detection/groundTruthGenerator/osmOutputDir/osm.bus.trips.xml"/>
    </input>

    <output>
        <output-file value="/home/eu/stop-detection/groundTruthGenerator/osmOutputDir/osm.bus.trips.xml.tmp"/>
        <write-trips value="true"/>
    </output>

    <time>
        <begin value="0"/>
        <end value="3600"/>
    </time>

    <report>
        <no-warnings value="true"/>
        <ignore-errors value="true"/>
        <no-step-log value="true"/>
    </report>

</configuration>
-->

<routes xmlns:xsi="http://www.w3.org/2001/XMLSchema-instance" xsi:noNamespaceSchemaLocation="http://sumo.dlr.de/xsd/routes_file.xsd">
    <vType id="bus_bus" vClass="bus"/>
    <trip id="bus0" type="bus_bus" depart="0.00" departLane="best" from="-80776637#1" to="-1109277586#1"/>
    <trip id="bus1" type="bus_bus" depart="32.01" departLane="best" departSpeed="max" from="-215885158#13" to="11181663#2"/>
    <trip id="bus2" type="bus_bus" depart="64.03" departLane="best" departSpeed="max" from="1160435050#0" to="11192348#3"/>
    <trip id="bus3" type="bus_bus" depart="96.04" departLane="best" departSpeed="max" from="-215885158#13" to="11198919#2"/>
    <trip id="bus4" type="bus_bus" depart="128.05" departLane="best" from="-73540498#2" to="-1160435050#4"/>
    <trip id="bus5" type="bus_bus" depart="160.06" departLane="best" from="-11198919#1" to="-11193557#0"/>
    <trip id="bus6" type="bus_bus" depart="192.08" departLane="best" departSpeed="max" from="47026382#0" to="11202155#1"/>
    <trip id="bus7" type="bus_bus" depart="224.09" departLane="best" from="47026378#4" to="127605064#1"/>
    <trip id="bus8" type="bus_bus" depart="256.10" departLane="best" departSpeed="max" from="215671208#0" to="-11177970#0"/>
    <trip id="bus9" type="bus_bus" depart="288.12" departLane="best" departSpeed="max" from="-215885158#13" to="-47026378#6"/>
    <trip id="bus10" type="bus_bus" depart="320.13" departLane="best" departSpeed="max" from="-11193557#2" to="-215885158#7"/>
    <trip id="bus11" type="bus_bus" depart="352.14" departLane="best" from="-11198919#5" to="-47026378#3"/>
    <trip id="bus12" type="bus_bus" depart="384.15" departLane="best" from="-47026378#1" to="73541769#1"/>
    <trip id="bus13" type="bus_bus" depart="416.17" departLane="best" from="-215671208#2" to="215795055#3"/>
    <trip id="bus14" type="bus_bus" depart="448.18" departLane="best" departSpeed="max" from="-215885158#13" to="80664630#1"/>
    <trip id="bus16" type="bus_bus" depart="512.21" departLane="best" from="1160435050#5" to="-80776632#0"/>
    <trip id="bus17" type="bus_bus" depart="544.22" departLane="best" from="73541769#0" to="1109277585#1"/>
    <trip id="bus18" type="bus_bus" depart="576.23" departLane="best" departSpeed="max" from="11196509#0" to="73538114#3"/>
    <trip id="bus19" type="bus_bus" depart="608.24" departLane="best" from="80776637#3" to="11181663#2"/>
    <trip id="bus20" type="bus_bus" depart="640.26" departLane="best" from="-11198919#0" to="-11177970#0"/>
    <trip id="bus21" type="bus_bus" depart="672.27" departLane="best" from="-1160435050#6" to="127605064#7"/>
    <trip id="bus22" type="bus_bus" depart="704.28" departLane="best" from="-11193557#0" to="-80664630#9"/>
    <trip id="bus23" type="bus_bus" depart="736.30" departLane="best" from="80776637#3" to="11183171#1"/>
    <trip id="bus24" type="bus_bus" depart="768.31" departLane="best" from="80776632#11" to="556550852"/>
    <trip id="bus25" type="bus_bus" depart="800.32" departLane="best" departSpeed="max" from="210328290#0" to="11183171#1"/>
    <trip id="bus26" type="bus_bus" depart="832.33" departLane="best" from="-47026378#1" to="127605064#7"/>
    <trip id="bus27" type="bus_bus" depart="864.35" departLane="best" from="-47026383#7" to="127605064#7"/>
    <trip id="bus28" type="bus_bus" depart="896.36" departLane="best" from="11198919#1" to="-1160435050#4"/>
    <trip id="bus29" type="bus_bus" depart="928.37" departLane="best" from="215885158#12" to="11183171#1"/>
    <trip id="bus30" type="bus_bus" depart="960.39" departLane="best" from="215885158#7" to="11183171#1"/>
    <trip id="bus31" type="bus_bus" depart="992.40" departLane="best" from="-11176415#4" to="73541769#1"/>
    <trip id="bus32" type="bus_bus" depart="1024.41" departLane="best" from="-11196509#2" to="11177970#1"/>
    <trip id="bus33" type="bus_bus" depart="1056.42" departLane="best" departSpeed="max" from="-11193557#2" to="215885158#4"/>
    <trip id="bus34" type="bus_bus" depart="1088.44" departLane="best" departSpeed="max" from="1109277586#0" to="11192348#5"/>
    <trip id="bus36" type="bus_bus" depart="1152.46" departLane="best" from="80776637#2" to="127605070"/>
    <trip id="bus37" type="bus_bus" depart="1184.48" departLane="best" departSpeed="max" from="-11193557#2" to="127605064#7"/>
    <trip id="bus38" type="bus_bus" depart="1216.49" departLane="best" departSpeed="max" from="-215885158#13" to="-11198919#2"/>
    <trip id="bus39" type="bus_bus" depart="1248.50" departLane="best" from="80664630#4" to="11193557#2"/>
    <trip id="bus40" type="bus_bus" depart="1280.51" departLane="best" departSpeed="max" from="1109277586#0" to="423220349#1"/>
    <trip id="bus41" type="bus_bus" depart="1312.53" departLane="best" departSpeed="max" from="423220349#0" to="-215671208#0"/>
    <trip id="bus42" type="bus_bus" depart="1344.54" departLane="best" departSpeed="max" from="11192348#0" to="-11177970#0"/>
    <trip id="bus43" type="bus_bus" depart="1376.55" departLane="best" from="80776632#11" to="73541769#1"/>
    <trip id="bus44" type="bus_bus" depart="1408.57" departLane="best" from="11183171#0" to="215885158#13"/>
    <trip id="bus45" type="bus_bus" depart="1440.58" departLane="best" from="11176415#4" to="51064594#4"/>
    <trip id="bus46" type="bus_bus" depart="1472.59" departLane="best" departSpeed="max" from="-11193557#2" to="1109277585#1"/>
    <trip id="bus47" type="bus_bus" depart="1504.60" departLane="best" departSpeed="max" from="-11193557#2" to="-215885158#0"/>
    <trip id="bus48" type="bus_bus" depart="1536.62" departLane="best" from="-47026378#1" to="73541769#1"/>
    <trip id="bus50" type="bus_bus" depart="1600.64" departLane="best" from="-73541792" to="-1160435050#5"/>
    <trip id="bus51" type="bus_bus" depart="1632.66" departLane="best" from="127605064#1" to="73541792"/>
    <trip id="bus52" type="bus_bus" depart="1664.67" departLane="best" departSpeed="max" from="-127605064#7" to="-11196509#0"/>
    <trip id="bus53" type="bus_bus" depart="1696.68" departLane="best" from="-1160435050#5" to="11192348#8"/>
    <trip id="bus54" type="bus_bus" depart="1728.69" departLane="best" departSpeed="max" from="1160435050#0" to="-423220349#0"/>
    <trip id="bus55" type="bus_bus" depart="1760.71" departLane="best" from="1109277589#0" to="73540498#0"/>
    <trip id="bus56" type="bus_bus" depart="1792.72" departLane="best" from="-80776637#1" to="-47026378#1"/>
    <trip id="bus57" type="bus_bus" depart="1824.73" departLane="best" departSpeed="max" from="1160435050#0" to="-423220349#0"/>
    <trip id="bus58" type="bus_bus" depart="1856.75" departLane="best" departSpeed="max" from="215795047#0" to="11192348#8"/>
    <trip id="bus59" type="bus_bus" depart="1888.76" departLane="best" departSpeed="max" from="-11193557#2" to="73538114#1"/>
    <trip id="bus60" type="bus_bus" depart="1920.77" departLane="best" from="47026378#5" to="11198919#0"/>
    <trip id="bus61" type="bus_bus" depart="1952.78" departLane="best" from="-423220347#0" to="-11196509#0"/>
    <trip id="bus62" type="bus_bus" depart="1984.80" departLane="best" departSpeed="max" from="-210585066#1" to="73541769#1"/>
    <trip id="bus63" type="bus_bus" depart="2016.81" departLane="best" from="-11183171#0" to="215885158#13"/>
    <trip id="bus64" type="bus_bus" depart="2048.82" departLane="best" from="423220347#0" to="-11196509#0"/>
    <trip id="bus65" type="bus_bus" depart="2080.84" departLane="best" departSpeed="max" from="-215885158#13" to="47026378#4"/>
    <trip id="bus66" type="bus_bus" depart="2112.85" departLane="best" departSpeed="max" from="1109277586#0" to="-47026382#0"/>
    <trip id="bus67" type="bus_bus" depart="2144.86" departLane="best" from="-11177970#1" to="-215671208#0"/>
    <trip id="bus68" type="bus_bus" depart="2176.87" departLane="best" departSpeed="max" from="-73538114#4" to="556550852"/>
    <trip id="bus69" type="bus_bus" depart="2208.89" departLane="best" departSpeed="max" from="80776632#0" to="-47026378#3"/>
    <trip id="bus70" type="bus_bus" depart="2240.90" departLane="best" departSpeed="max" from="1160435050#0" to="-80776632#0"/>
    <trip id="bus71" type="bus_bus" depart="2272.91" departLane="best" from="80776632#7" to="11183171#1"/>
    <trip id="bus72" type="bus_bus" depart="2304.93" departLane="best" from="-80664630#4" to="11193557#2"/>
    <trip id="bus73" type="bus_bus" depart="2336.94" departLane="best" from="-1038707887#1" to="73541769#1"/>
    <trip id="bus75" type="bus_bus" depart="2400.96" departLane="best" departSpeed="max" from="-73541769#5" to="-11192348#0"/>
    <trip id="bus76" type="bus_bus" depart="2432.98" departLane="best" departSpeed="max" from="-73538114#4" to="51064594#3"/>
    <trip id="bus77" type="bus_bus" depart="2464.99" departLane="best" departSpeed="max" from="215671208#0" to="-47026382#0"/>
    <trip id="bus78" type="bus_bus" depart="2497.00" departLane="best" from="73540498#0" to="127605064#1"/>
    <trip id="bus79" type="bus_bus" depart="2529.02" departLane="best" departSpeed="max" from="1109277586#0" to="73538114#3"/>
    <trip id="bus80" type="bus_bus" depart="2561.03" departLane="best" departSpeed="max" from="1160435050#0" to="-73538114#1"/>
    <trip id="bus81" type="bus_bus" depart="2593.04" departLane="best" departSpeed="max" from="-215795055#3" to="-1109277586#1"/>
    <trip id="bus82" type="bus_bus" depart="2625.05" departLane="best" from="-215885158#9" to="1109277590#0"/>
    <trip id="bus83" type="bus_bus" depart="2657.07" departLane="best" departSpeed="max" from="-215795055#3" to="215671208#2"/>
    <trip id="bus84" type="bus_bus" depart="2689.08" departLane="best" from="1109277590#0" to="-423220347#1"/>
    <trip id="bus85" type="bus_bus" depart="2721.09" departLane="best" departSpeed="max" from="215795047#0" to="215885158#9"/>
    <trip id="bus86" type="bus_bus" depart="2753.11" departLane="best" from="-423220347#0" to="51064594#3"/>
    <trip id="bus87" type="bus_bus" depart="2785.12" departLane="best" departSpeed="max" from="1109277586#0" to="-423220349#0"/>
    <trip id="bus88" type="bus_bus" depart="2817.13" departLane="best" from="11183171#0" to="-11198919#5"/>
    <trip id="bus89" type="bus_bus" depart="2849.14" departLane="best" departSpeed="max" from="47026382#0" to="80664630#11"/>
    <trip id="bus90" type="bus_bus" depart="2881.16" departLane="best" from="-80776632#8" to="215885158#13"/>
    <trip id="bus91" type="bus_bus" depart="2913.17" departLane="best" departSpeed="max" from="11192348#0" to="11202155#1"/>
    <trip id="bus92" type="bus_bus" depart="2945.18" departLane="best" departSpeed="max" from="-215885158#13" to="-215885158#3"/>
    <trip id="bus93" type="bus_bus" depart="2977.20" departLane="best" from="-73540498#1" to="210585066#1"/>
    <trip id="bus94" type="bus_bus" depart="3009.21" departLane="best" from="-80776632#2" to="-1160435050#6"/>
    <trip id="bus95" type="bus_bus" depart="3041.22" departLane="best" from="-80664630#7" to="11193557#2"/>
    <trip id="bus96" type="bus_bus" depart="3073.23" departLane="best" from="-11183171#0" to="127605064#7"/>
    <trip id="bus97" type="bus_bus" depart="3105.25" departLane="best" departSpeed="max" from="-127605064#7" to="1109277588#1"/>
    <trip id="bus98" type="bus_bus" depart="3137.26" departLane="best" departSpeed="max" from="-215885158#13" to="-47026383#7"/>
    <trip id="bus99" type="bus_bus" depart="3169.27" departLane="best" from="-11176415#4" to="11183171#1"/>
    <trip id="bus100" type="bus_bus" depart="3201.29" departLane="best" departSpeed="max" from="1160435050#0" to="423220347#2"/>
    <trip id="bus101" type="bus_bus" depart="3233.30" departLane="best" departSpeed="max" from="1160435050#0" to="215885158#3"/>
    <trip id="bus102" type="bus_bus" depart="3265.31" departLane="best" departSpeed="max" from="80776632#0" to="-215671208#0"/>
    <trip id="bus103" type="bus_bus" depart="3297.32" departLane="best" from="-11177970#1" to="-1160435050#4"/>
    <trip id="bus105" type="bus_bus" depart="3361.35" departLane="best" departSpeed="max" from="215671208#0" to="-11192348#0"/>
    <trip id="bus106" type="bus_bus" depart="3393.36" departLane="best" departSpeed="max" from="210328290#0" to="127605064#7"/>
    <trip id="bus107" type="bus_bus" depart="3425.38" departLane="best" departSpeed="max" from="47026382#0" to="11202155#1"/>
    <trip id="bus108" type="bus_bus" depart="3457.39" departLane="best" departSpeed="max" from="47026382#0" to="47026378#5"/>
    <trip id="bus109" type="bus_bus" depart="3489.40" departLane="best" departSpeed="max" from="1160435050#0" to="47026382#1"/>
    <trip id="bus110" type="bus_bus" depart="3521.41" departLane="best" from="1003384494#1" to="215885158#12"/>
    <trip id="bus111" type="bus_bus" depart="3553.43" departLane="best" from="47026378#4" to="-11192348#3"/>
</routes>
