<?xml version="1.0" encoding="UTF-8"?>

<!-- generated on 2023-10-11 17:20:17 by Eclipse SUMO polyconvert Version 1.12.0
<configuration xmlns:xsi="http://www.w3.org/2001/XMLSchema-instance" xsi:noNamespaceSchemaLocation="http://sumo.dlr.de/xsd/polyconvertConfiguration.xsd">

    <input>
        <net-file value="osm.net.xml"/>
        <osm-files value="osm_bbox.osm.xml"/>
        <osm.keep-full-type value="true"/>
        <type-file value="/usr/share/sumo/data/typemap/osmPolyconvert.typ.xml"/>
    </input>

    <output>
        <output-file value="osm.poly.xml"/>
    </output>

    <processing>
        <poi-layer-offset value="5"/>
    </processing>

    <report>
        <verbose value="true"/>
    </report>

</configuration>
-->

<additional xmlns:xsi="http://www.w3.org/2001/XMLSchema-instance" xsi:noNamespaceSchemaLocation="http://sumo.dlr.de/xsd/additional_file.xsd">
    <location netOffset="-462551.28,-3156586.18" convBoundary="-0.00,0.00,1723.45,1332.37" origBoundary="-81.382808,28.535533,-81.365188,28.547575" projParameter="+proj=utm +zone=17 +ellps=WGS84 +datum=WGS84 +units=m +no_defs"/>

    <poly id="1003384494" type="landuse.residential" color="235,235,227" fill="0" layer="-3.00" shape="674.916991,895.255503 674.718735,903.786673 673.805210,983.721883 673.238757,1033.943113 673.169646,1039.981186"/>
    <poly id="1003384495" type="landuse.residential" color="235,235,227" fill="0" layer="-3.00" shape="678.192350,538.878916 678.087109,542.756766"/>
    <poly id="1021241025" type="amenity.parking" color="184,184,179" fill="1" layer="-1.00" shape="694.155841,1040.812775 716.019817,1040.799676 716.268162,1045.130645 717.366919,1046.124281 722.914024,1046.250933 725.844321,1044.823693 741.660129,1043.998682 744.104588,1049.873787 745.493032,1052.783124 747.050313,1053.376497 750.210122,1050.264592 759.953207,1059.540165 757.438035,1062.328770 757.492527,1064.112260 759.101110,1065.469900 760.658077,1065.963569 762.171791,1065.139015 764.413056,1062.351268 794.881092,1085.931057 809.346424,1094.361017 807.567074,1097.834188 810.755586,1107.041652 810.770951,1111.960518 789.092006,1111.662662 788.707324,1107.520455 787.746086,1106.703640 785.956183,1106.797864 785.411069,1107.663702 785.287240,1111.862891 763.324604,1111.565970 763.308179,1106.314748 762.348672,1106.051862 756.665371,1106.158269 756.906712,1080.111642 761.944663,1080.095883 762.352545,1079.141844 762.073786,1077.591707 758.206685,1073.504709 755.865668,1072.548191 755.183463,1073.370144 755.285645,1077.889907 701.832291,1077.370377 701.913525,1072.074535 700.991130,1071.168977 699.432598,1070.176782 697.321570,1070.814879 692.273894,1067.728678 688.008473,1067.653417 688.438908,1045.804998 693.026742,1045.746306 694.216904,1044.690106 694.155841,1040.812775"/>
    <poly id="1092474422" type="leisure.swimming_pool" color="207,245,201" fill="1" layer="-2.00" shape="648.076488,712.287434 656.333014,712.228300 656.302607,708.771862 653.778695,708.790857 653.744605,704.160096 656.738089,704.139629 656.689005,697.847120 655.045503,697.852275 655.028980,695.703072 657.699636,695.683618 657.638546,688.682115 646.750477,688.760582 646.787733,694.399488 649.409476,694.380185 649.439745,697.792308 647.199531,697.810415 647.259932,704.590347 650.439288,704.569295 650.471052,708.457795 648.044967,708.476484 648.076488,712.287434"/>
    <poly id="1101366961" type="building.residential" color="255,230,230" fill="1" layer="-1.00" shape="618.080665,652.556965 638.371207,652.825637 638.324503,656.647911 643.343314,656.709714 643.407534,652.233746 663.492637,652.503106 663.158535,676.987927 638.279675,676.656059 637.596501,727.054896 617.090867,726.786902 618.080665,652.556965"/>
    <poly id="1101366962" type="amenity.parking" color="184,184,179" fill="1" layer="-1.00" shape="618.080665,652.556965 603.748152,652.369321 602.758410,726.588182 617.090867,726.786902 618.080665,652.556965"/>
    <poly id="1101366962#1" type="building.yes" color="255,230,230" fill="1" layer="-1.00" shape="618.080665,652.556965 603.748152,652.369321 602.758410,726.588182 617.090867,726.786902 618.080665,652.556965"/>
    <poly id="1104710786" type="building.yes" color="255,230,230" fill="1" layer="-1.00" shape="983.132195,534.038496 983.898593,478.454658 1038.059704,479.194886 1037.764956,500.854508 1010.625754,500.484547 1007.858784,497.856429 1002.446751,503.501181 1002.343149,511.090360 1007.621973,516.103657 1008.502469,516.112001 1010.735595,513.800711 1080.716275,514.746817 1083.257531,517.154079 1088.659847,511.520473 1088.756057,504.684665 1083.035727,499.251713 1080.685601,501.696295 1053.115956,501.327569 1053.410698,479.656869 1065.473700,479.829946 1067.445874,481.696117 1069.191384,479.873810 1075.883249,479.963847 1078.218489,482.183410 1080.051806,480.283283 1081.323655,480.301497 1094.100809,480.472390 1095.219358,481.532471 1108.749864,481.723203 1108.357769,509.897353 1108.007385,535.744865 983.132195,534.038496"/>
    <poly id="1109277583" type="landuse.residential" color="235,235,227" fill="0" layer="-3.00" shape="678.087109,542.756766 678.009064,545.947655 677.471054,617.749935"/>
    <poly id="1109277584" type="landuse.residential" color="235,235,227" fill="0" layer="-3.00" shape="677.471054,617.749935 677.333876,636.406778 677.277734,643.464041"/>
    <poly id="1109277585" type="landuse.residential" color="235,235,227" fill="0" layer="-3.00" shape="677.277734,643.464041 677.229673,649.978426 676.731443,712.618564"/>
    <poly id="1109277587" type="landuse.residential" color="235,235,227" fill="0" layer="-3.00" shape="676.731443,712.618564 676.591665,730.444519 676.544023,737.091847"/>
    <poly id="1109277588" type="landuse.residential" color="235,235,227" fill="0" layer="-3.00" shape="676.544023,737.091847 676.434674,745.899702 675.599091,816.384577 675.275682,866.128652"/>
    <poly id="1109277589" type="landuse.residential" color="235,235,227" fill="0" layer="-3.00" shape="675.275682,866.128652 675.122263,888.962196 674.916991,895.255503"/>
    <poly id="1109277590" type="landuse.residential" color="235,235,227" fill="0" layer="-3.00" shape="673.169646,1039.981186 672.671786,1115.195609 672.604009,1124.778842"/>
    <poly id="1111266254" type="landuse.commercial" color="209,209,204" fill="1" layer="-3.00" shape="685.767120,727.058935 882.825892,731.306542 882.203690,647.819942 825.076737,649.449451 747.093449,651.321729 708.991784,649.048011 688.934533,648.302105 684.820882,653.001256 685.767120,727.058935"/>
    <poly id="215795047" type="landuse.residential" color="235,235,227" fill="0" layer="-3.00" shape="680.050215,391.881868 679.957957,399.903082 678.419412,530.170402 678.192350,538.878916"/>
    <poly id="220547255" type="amenity.parking" color="184,184,179" fill="1" layer="-1.00" shape="728.266790,1215.526816 768.404014,1215.523085 768.391421,1142.681090 729.476398,1142.570204 728.266790,1215.526816"/>
    <poly id="220547255#1" type="building.parking" color="255,230,230" fill="1" layer="-1.00" shape="728.266790,1215.526816 768.404014,1215.523085 768.391421,1142.681090 729.476398,1142.570204 728.266790,1215.526816"/>
    <poly id="220547504" type="building.yes" color="255,230,230" fill="1" layer="-1.00" shape="790.053283,1209.517249 789.854941,1146.059441 830.418777,1144.758392 830.485463,1166.117793 840.190460,1166.375541 860.406316,1146.127186 859.724800,1209.886859 790.053283,1209.517249"/>
    <poly id="220547529" type="building.yes" color="255,230,230" fill="1" layer="-1.00" shape="878.538929,1210.703393 878.926178,1146.656596 916.144722,1145.454903 915.341451,1167.082899 926.738342,1167.191427 947.326385,1147.041773 946.898806,1210.822801 878.538929,1210.703393"/>
    <poly id="220547869" type="building.yes" color="255,230,230" fill="1" layer="-1.00" shape="1007.535489,1184.189544 1005.650953,1144.378792 1012.420475,1138.098333 1053.510553,1139.289113 1053.272434,1179.195087 1045.555954,1186.098865 1007.535489,1184.189544"/>
    <poly id="220548168" type="building.apartments" color="255,230,230" fill="1" layer="-1.00" shape="1069.584620,464.717036 1073.341372,464.738623 1105.821450,464.870612 1106.036023,414.129862 1096.379980,414.082227 1076.696210,414.010292 1069.799036,413.976283 1069.584620,464.717036"/>
    <poly id="294129117" type="building.apartments" color="255,230,230" fill="1" layer="-1.00" shape="841.608866,520.608813 846.882157,520.692067 846.815922,524.547636 892.308886,525.214528 892.341183,523.020859 926.915820,523.522497 926.948951,521.594714 934.765896,521.703325 934.684963,527.132103 947.227315,527.314644 956.736834,527.462318 956.795010,524.149628 960.365972,524.204993 961.051355,477.207338 933.364111,476.794944 932.904002,508.126726 927.278521,508.044530 927.311790,506.161060 893.001240,505.658597 893.049616,502.345937 880.595281,502.163179 880.570698,503.692106 858.646025,503.383793 858.751193,496.326381 862.645035,496.391788 862.751000,489.589181 839.035922,489.253253 838.768607,507.046360 841.811264,507.092258 841.608866,520.608813"/>
    <poly id="294129118" type="amenity.parking" color="184,184,179" fill="1" layer="-1.00" shape="836.560772,486.103569 865.598389,486.622309 865.498439,492.217326 907.068784,492.962981 907.260009,482.116412 902.603060,482.042290 902.811328,470.386928 902.986193,460.570722 837.044826,459.391493 836.619295,482.912742 836.560772,486.103569"/>
    <poly id="294129118#1" type="building.yes" color="255,230,230" fill="1" layer="-1.00" shape="836.560772,486.103569 865.598389,486.622309 865.498439,492.217326 907.068784,492.962981 907.260009,482.116412 902.603060,482.042290 902.811328,470.386928 902.986193,460.570722 837.044826,459.391493 836.619295,482.912742 836.560772,486.103569"/>
    <poly id="294906107" type="building.apartments" color="255,230,230" fill="1" layer="-1.00" shape="960.281788,688.999811 960.042198,646.569416 951.139930,646.619267 928.874475,646.743954 896.660028,646.932914 896.949444,699.001561 899.585628,700.477883 903.035193,702.405896 901.429911,705.258104 899.367361,708.920478 897.783289,715.439646 897.904030,716.513897 898.347208,720.600530 900.962598,724.824417 905.437360,729.253006 911.744747,731.582029 915.893930,731.990094 920.135076,730.514507 925.026180,727.275397 929.452154,722.320550 916.934635,714.338599 929.505377,714.277300 929.478522,708.793463 934.203550,708.767676 934.093564,689.147769 960.281788,688.999811"/>
    <poly id="294906108" type="leisure.swimming_pool" color="207,245,201" fill="1" layer="-2.00" shape="904.378690,665.764689 908.379845,665.752226 908.703107,662.748911 910.270819,660.395359 912.494978,658.361043 914.847970,656.858100 915.099684,652.869010 905.522339,652.898841 904.543888,652.846495 904.378690,665.764689"/>
    <poly id="294906226" type="building.apartments" color="255,230,230" fill="1" layer="-1.00" shape="1057.203316,648.926474 1057.225965,656.227218 1073.429030,657.074333 1076.129558,657.221060 1076.201555,680.441635 1076.212100,683.842741 1053.116628,684.435068 1052.163814,714.715909 1084.176172,715.669098 1085.166324,694.251046 1107.149805,694.714695 1106.593170,736.084006 1051.543061,735.357315 978.746201,734.397998 979.080132,709.647307 979.912729,647.050480 1057.203316,648.926474"/>
    <poly id="294906228" type="leisure.swimming_pool" color="207,245,201" fill="1" layer="-2.00" shape="1013.787338,702.615316 1018.639199,702.478383 1019.220055,678.458117 1012.528234,678.345957 1012.412000,681.869321 1014.241789,681.996581 1013.787338,702.615316"/>
    <poly id="294906360" type="building.apartments" color="255,230,230" fill="1" layer="-1.00" shape="899.117001,572.044822 903.842290,572.085495 903.967220,558.801833 915.120097,558.900039 914.837824,590.774125 887.435066,590.527136 887.725286,558.088015 899.240130,558.185078 899.117001,572.044822"/>
    <poly id="294906443" type="building.yes" color="255,230,230" fill="1" layer="-1.00" shape="1197.758583,739.070119 1197.974658,726.683550 1123.318126,725.429959 1123.111947,737.827579 1197.758583,739.070119"/>
    <poly id="294906584" type="building.yes" color="255,230,230" fill="1" layer="-1.00" shape="1046.204253,622.704259 1100.520425,623.189477 1100.727546,604.787241 1046.282908,603.914668 1046.204253,622.704259"/>
    <poly id="400031630" type="amenity.place_of_worship" color="237,199,199" fill="1" layer="-1.00" shape="642.681669,526.892410 643.038131,487.717262 632.315629,487.617963 632.046628,517.243059 629.532353,517.228793 629.473422,523.388695 610.728701,523.225967 610.781910,518.362282 607.347973,518.328751 607.369738,515.913542 596.627695,515.814337 593.027448,515.781332 592.993360,520.500935 569.053706,520.288124 569.270610,495.925536 566.364979,495.901435 566.338072,499.790118 552.934956,499.666084 552.709001,524.250273 534.296862,524.075543 534.688735,480.723632 541.654461,480.790346 541.706700,475.627540 539.505435,475.601229 539.616384,464.223128 541.778485,464.238484 541.813110,459.696137 546.920018,459.746544 546.875434,464.233529 582.056224,464.543910 582.084877,461.209153 588.258125,461.256227 588.220836,464.956606 592.153753,464.999643 592.010231,481.595879 596.764909,481.636336 602.292473,481.685446 602.409682,469.166228 607.428538,469.216938 607.524197,459.179400 603.160863,459.148789 603.322124,441.965330 605.503794,441.980636 605.568252,434.469124 632.139803,434.706989 632.030327,446.583621 634.828393,446.619155 634.768554,452.491015 632.107521,452.477209 632.032950,459.889044 635.447338,459.922644 635.358553,469.040634 661.528888,469.268744 661.499692,472.437323 666.303287,472.477655 665.873440,519.474541 661.069864,519.434210 661.005719,527.056508 642.681669,526.892410"/>
    <poly id="400031630#1" type="building.yes" color="255,230,230" fill="1" layer="-1.00" shape="642.681669,526.892410 643.038131,487.717262 632.315629,487.617963 632.046628,517.243059 629.532353,517.228793 629.473422,523.388695 610.728701,523.225967 610.781910,518.362282 607.347973,518.328751 607.369738,515.913542 596.627695,515.814337 593.027448,515.781332 592.993360,520.500935 569.053706,520.288124 569.270610,495.925536 566.364979,495.901435 566.338072,499.790118 552.934956,499.666084 552.709001,524.250273 534.296862,524.075543 534.688735,480.723632 541.654461,480.790346 541.706700,475.627540 539.505435,475.601229 539.616384,464.223128 541.778485,464.238484 541.813110,459.696137 546.920018,459.746544 546.875434,464.233529 582.056224,464.543910 582.084877,461.209153 588.258125,461.256227 588.220836,464.956606 592.153753,464.999643 592.010231,481.595879 596.764909,481.636336 602.292473,481.685446 602.409682,469.166228 607.428538,469.216938 607.524197,459.179400 603.160863,459.148789 603.322124,441.965330 605.503794,441.980636 605.568252,434.469124 632.139803,434.706989 632.030327,446.583621 634.828393,446.619155 634.768554,452.491015 632.107521,452.477209 632.032950,459.889044 635.447338,459.922644 635.358553,469.040634 661.528888,469.268744 661.499692,472.437323 666.303287,472.477655 665.873440,519.474541 661.069864,519.434210 661.005719,527.056508 642.681669,526.892410"/>
    <poly id="400031632" type="amenity.townhall" color="237,199,199" fill="1" layer="-1.00" shape="774.486345,513.894312 780.894629,514.029382 780.843947,519.723954 795.176478,519.867502 795.251809,512.666160 780.929052,512.522581 780.997742,506.329414 795.300940,506.473054 795.624137,475.274633 785.958184,475.171893 785.778892,492.931491 765.918771,492.738764 734.190641,460.898335 713.391891,460.896971 702.701949,471.200335 702.572533,492.349840 733.360122,523.749984 754.365067,524.027703 765.113425,513.635572 769.794901,518.429059 774.486345,513.894312"/>
    <poly id="400031632#1" type="building.yes" color="255,230,230" fill="1" layer="-1.00" shape="774.486345,513.894312 780.894629,514.029382 780.843947,519.723954 795.176478,519.867502 795.251809,512.666160 780.929052,512.522581 780.997742,506.329414 795.300940,506.473054 795.624137,475.274633 785.958184,475.171893 785.778892,492.931491 765.918771,492.738764 734.190641,460.898335 713.391891,460.896971 702.701949,471.200335 702.572533,492.349840 733.360122,523.749984 754.365067,524.027703 765.113425,513.635572 769.794901,518.429059 774.486345,513.894312"/>
    <poly id="400031636" type="amenity.parking" color="184,184,179" fill="1" layer="-1.00" shape="621.025556,599.658339 621.581603,549.293143 612.111365,549.189932 600.293133,549.060868 582.399457,548.862277 578.104602,548.820381 578.050327,553.340633 577.548741,599.185581 621.025556,599.658339"/>
    <poly id="400031636#1" type="building.parking" color="255,230,230" fill="1" layer="-1.00" shape="621.025556,599.658339 621.581603,549.293143 612.111365,549.189932 600.293133,549.060868 582.399457,548.862277 578.104602,548.820381 578.050327,553.340633 577.548741,599.185581 621.025556,599.658339"/>
    <poly id="45775179" type="amenity.fountain" color="237,199,199" fill="1" layer="-1.00" shape="977.387974,895.374693 976.586077,892.319484 974.875881,889.743481 972.434092,887.845550 969.496146,886.835452 966.394997,886.822940 963.453401,887.784851 960.974379,889.642693 959.231223,892.196201 958.399191,895.178940 958.565293,898.258283 959.767866,901.179300 961.858964,903.554701 964.622509,905.108192 967.744975,905.685648 970.883700,905.199505 973.686751,903.728409 975.851317,901.417324 977.133627,898.521814 977.387974,895.374693"/>
    <poly id="47026385" type="amenity.library" color="237,199,199" fill="1" layer="-1.00" shape="662.155949,806.500273 636.876657,806.291532 636.911038,801.660556 536.234034,800.824751 536.645149,751.157943 627.881922,751.912599 627.912603,749.220395 662.632677,749.510295 662.155949,806.500273"/>
    <poly id="47026385#1" type="building.yes" color="255,230,230" fill="1" layer="-1.00" shape="662.155949,806.500273 636.876657,806.291532 636.911038,801.660556 536.234034,800.824751 536.645149,751.157943 627.881922,751.912599 627.912603,749.220395 662.632677,749.510295 662.155949,806.500273"/>
    <poly id="478555355" type="building.yes" color="255,230,230" fill="1" layer="-1.00" shape="1134.770420,1188.835690 1114.216670,1188.555909 1113.864843,1213.927067 1134.408765,1214.206878 1134.770420,1188.835690"/>
    <poly id="478555356" type="building.office" color="255,230,230" fill="1" layer="-1.00" shape="1211.209717,1172.812221 1211.138234,1143.343284 1253.828642,1143.255780 1253.899984,1172.713637 1211.209717,1172.812221"/>
    <poly id="478555358" type="building.apartments" color="255,230,230" fill="1" layer="-1.00" shape="1079.989185,778.797011 1080.759138,815.730766 1079.716763,820.298392 1097.332598,831.998212 1101.081438,826.347574 1102.890642,816.681405 1104.707301,755.743331 1079.866493,755.000502 994.758030,752.439627 994.767739,755.563770 991.441966,755.684892 991.941890,774.893679 995.179579,774.761752 995.450906,777.076342 1043.778648,777.347247 1043.785112,779.430009 1079.989185,778.797011"/>
    <poly id="478555359" type="building.yes" color="255,230,230" fill="1" layer="-1.00" shape="701.878681,1179.603891 691.899299,1179.192016 692.308536,1169.308589 702.287926,1169.720464 701.878681,1179.603891"/>
    <poly id="478555366" type="building.yes" color="255,230,230" fill="1" layer="-1.00" shape="1156.705144,1192.811498 1158.651578,1145.300304 1167.554392,1145.549727 1167.825127,1141.361167 1180.942469,1141.054711 1180.957816,1146.017890 1184.107739,1146.008150 1183.690537,1150.285792 1188.053164,1150.172596 1187.687309,1180.551333 1186.258560,1193.041368 1156.705144,1192.811498"/>
    <poly id="478555370" type="building.yes" color="255,230,230" fill="1" layer="-1.00" shape="680.140758,1219.743451 680.021644,1203.591170 691.652691,1203.510399 691.619274,1199.090127 701.430847,1199.026146 701.465788,1203.933873 705.124343,1203.911332 705.232113,1219.576188 680.140758,1219.743451"/>
    <poly id="478555433" type="building.yes" color="255,230,230" fill="1" layer="-1.00" shape="986.451068,459.280706 986.450797,456.045749 983.163692,456.044887 983.172384,446.251358 984.972447,446.245763 985.000761,420.731607 983.445268,420.736441 983.459573,412.748710 983.452996,410.632714 990.516380,410.632919 990.520724,408.882483 1006.115011,408.900505 1006.112007,411.083003 1012.901467,411.084072 1012.894333,421.387213 1010.790959,421.382667 1010.770651,446.342866 1012.472920,446.348658 1012.465855,456.673956 1008.973309,456.673725 1008.972714,459.631719 1004.202973,461.042442 999.498514,461.422651 995.467735,461.368703 991.259348,460.827849 986.451068,459.280706"/>
    <poly id="500079228" type="building.yes" color="255,230,230" fill="1" layer="-1.00" shape="1210.215461,676.825157 1210.002092,658.424223 1235.007210,658.457792 1235.101719,660.551360 1245.568501,660.264245 1247.566888,661.133289 1246.862431,680.124222 1246.730865,688.212023 1248.824374,688.205563 1248.472140,700.869516 1246.632984,700.875192 1246.648267,705.827289 1246.661156,710.003890 1247.385113,710.012735 1247.467678,714.576873 1248.135189,718.485567 1248.293373,728.533391 1225.859206,727.827140 1226.613191,718.552003 1224.783411,718.424710 1225.011181,709.815916 1223.699474,709.554079 1223.936205,700.679371 1221.967855,700.031810 1222.071253,692.331848 1221.130427,682.286442 1219.026313,682.027053 1217.181132,680.082914 1217.171449,676.947694 1210.215461,676.825157"/>
    <poly id="549561261" type="building.yes" color="255,230,230" fill="1" layer="-1.00" shape="1291.178176,1006.829137 1291.083994,1017.531381 1303.155877,1017.593882 1306.168948,1017.606754 1306.162530,1015.523992 1314.037015,1015.366787 1314.041452,1016.806995 1338.312561,1016.987056 1338.362391,1033.172777 1303.183766,1032.993088 1291.004292,1032.930919 1290.909174,1046.502531 1321.088857,1046.675422 1321.133866,1061.287994 1295.943674,1061.232666 1295.957777,1065.808096 1275.091431,1065.739488 1275.438157,1006.877668 1291.178176,1006.829137"/>
    <poly id="549561262" type="building.yes" color="255,230,230" fill="1" layer="-1.00" shape="1275.948270,1000.993344 1327.377652,1001.754378 1327.733982,990.397689 1320.778625,990.419110 1320.771391,988.070463 1312.633703,985.359110 1296.364581,985.143356 1296.358537,983.182457 1275.754976,982.725284 1275.948270,1000.993344"/>
    <poly id="549561263" type="building.yes" color="255,230,230" fill="1" layer="-1.00" shape="1290.002088,879.184830 1310.732185,879.375754 1310.642113,850.139540 1279.023914,849.982184 1278.684534,866.822741 1287.607052,867.050039 1289.972719,869.657302 1290.002088,879.184830"/>
    <poly id="549561265" type="building.yes" color="255,230,230" fill="1" layer="-1.00" shape="1169.535104,865.564492 1175.940361,867.948746 1181.932418,853.760655 1180.943449,853.464590 1183.789582,846.930479 1174.582100,843.136823 1167.552593,860.330434 1171.098763,861.892631 1169.535104,865.564492"/>
    <poly id="549561267" type="building.yes" color="255,230,230" fill="1" layer="-1.00" shape="1308.043553,1118.017662 1315.585982,1118.060895 1315.692070,1104.865922 1308.306356,1104.888677 1308.290448,1099.726085 1300.151007,1099.596067 1300.089222,1101.767669 1273.489494,1101.406534 1273.460916,1117.514948 1308.043553,1118.017662"/>
    <poly id="549561267#1" type="tourism.motel" color="207,245,201" fill="1" layer="-2.00" shape="1308.043553,1118.017662 1315.585982,1118.060895 1315.692070,1104.865922 1308.306356,1104.888677 1308.290448,1099.726085 1300.151007,1099.596067 1300.089222,1101.767669 1273.489494,1101.406534 1273.460916,1117.514948 1308.043553,1118.017662"/>
    <poly id="556676176" type="amenity.place_of_worship" color="237,199,199" fill="1" layer="-1.00" shape="623.401209,602.265438 576.490735,601.836699 576.475069,603.077555 576.204371,632.115497 623.114724,632.544233 623.202557,623.127122 623.401209,602.265438"/>
    <poly id="556676176#1" type="building.yes" color="255,230,230" fill="1" layer="-1.00" shape="623.401209,602.265438 576.490735,601.836699 576.475069,603.077555 576.204371,632.115497 623.114724,632.544233 623.202557,623.127122 623.401209,602.265438"/>
    <poly id="564831526" type="man_made.pier" color="255,230,230" fill="1" layer="-1.00" shape="992.982003,1093.810969 1001.997224,1092.442437 1000.761552,1085.156537 1000.181911,1084.360676 999.318544,1083.554619 998.418010,1083.380160 997.048781,1083.484122 994.242465,1083.891675 993.695407,1084.137105 993.031648,1084.604471 992.338887,1085.182713 992.089364,1086.734497 992.982003,1093.810969"/>
    <poly id="564831535" type="leisure.park" color="207,245,201" fill="1" layer="-2.00" shape="685.190701,1030.072437 719.006935,1029.401485 735.485814,1034.135864 749.696408,1048.659797 768.128687,1061.796794 804.650354,1087.950080 812.357124,1093.620423 837.334482,1103.856640 842.545093,1115.284606 1052.748796,1117.632751 1196.622374,1118.450145 1245.616767,1122.818895 1248.467583,1120.982122 1249.308701,1117.755645 1253.395824,904.723176 1251.423975,890.249496 1255.326069,886.692295 1257.051085,871.897007 1257.736355,761.075408 1254.559968,755.712075 1252.283033,753.337197 1247.496354,752.399206 1124.949701,750.008377 1122.583232,759.798131 1122.843095,767.895802 1132.873324,771.985994 1139.148119,779.610822 1140.236916,790.032439 1139.658279,795.883744 1133.265246,800.623029 1125.440931,804.391831 1118.730750,804.645262 1116.476275,806.369432 1108.883998,834.510505 1105.650341,839.095996 1100.833994,841.204780 1075.321246,825.618684 1074.696344,819.693556 992.974915,783.066495 980.826214,777.254742 979.839551,749.383982 767.508948,744.739350 764.035598,753.978710 764.580342,762.374608 769.190852,766.403891 769.202804,770.225981 765.302409,774.292957 754.979321,773.571897 751.665798,774.479631 750.785087,783.777358 746.710829,804.185864 727.065334,813.010546 688.559879,812.832027 686.589854,939.633157 685.621948,1002.241554 685.190701,1030.072437"/>
    <poly id="584447113" type="amenity.shelter" color="237,199,199" fill="1" layer="-1.00" shape="1181.721781,1038.752233 1180.165533,1035.322670 1182.122833,1032.414017 1186.172739,1032.390417 1187.835668,1035.520528 1185.371597,1039.051150 1181.721781,1038.752233"/>
    <poly id="615948622" type="building.yes" color="255,230,230" fill="1" layer="-1.00" shape="985.080471,628.931941 1017.061038,629.020916 1017.244399,565.207469 985.263657,565.118491 985.080471,628.931941"/>
    <poly id="615995501" type="building.yes" color="255,230,230" fill="1" layer="-1.00" shape="1171.559155,627.999278 1171.904249,590.906981 1217.542876,591.319871 1217.801209,564.098900 1250.066295,564.398128 1249.472329,628.711360 1171.559155,627.999278"/>
    <poly id="615995502" type="building.yes" color="255,230,230" fill="1" layer="-1.00" shape="1275.722044,629.428050 1276.991423,562.021803 1317.250537,562.761872 1315.990710,630.168082 1275.722044,629.428050"/>
    <poly id="659513631" type="amenity.parking" color="184,184,179" fill="1" layer="-1.00" shape="746.062971,634.640537 733.921996,634.512349 733.990624,628.308102 718.767919,628.145261 718.715881,633.396694 702.113738,633.216036 702.159213,628.994935 696.592554,628.934823 697.349616,558.317272 702.916309,558.377384 702.982875,551.519505 746.215249,551.982416 746.154905,557.710255 750.948716,557.761730 750.182589,628.711661 746.122551,628.668970 746.062971,634.640537"/>
    <poly id="659515655" type="amenity.parking" color="184,184,179" fill="1" layer="-1.00" shape="613.511824,1045.009750 596.127106,1044.654450 596.798841,1012.479979 614.183607,1012.835281 613.511824,1045.009750"/>
    <poly id="659515655#1" type="building.yes" color="255,230,230" fill="1" layer="-1.00" shape="613.511824,1045.009750 596.127106,1044.654450 596.798841,1012.479979 614.183607,1012.835281 613.511824,1045.009750"/>
    <poly id="659515669" type="amenity.parking" color="184,184,179" fill="1" layer="-1.00" shape="598.821588,1011.764591 635.703164,1012.158397 635.913583,991.928148 599.041761,991.545388 598.821588,1011.764591"/>
    <poly id="659521060" type="amenity.parking" color="184,184,179" fill="1" layer="-1.00" shape="1105.699452,602.334540 1018.304114,600.877349 1018.972984,561.091931 1024.490860,561.185584 1024.573829,556.399361 1106.451620,557.762908 1105.699452,602.334540"/>
    <poly id="659522950" type="amenity.parking" color="184,184,179" fill="1" layer="-1.00" shape="1295.710188,887.088452 1277.582340,886.911687 1277.678631,876.896313 1270.224021,876.830674 1270.393702,858.893856 1276.703723,858.951946 1276.606954,868.812221 1288.620466,868.930282 1288.508562,880.230824 1295.777300,880.297048 1295.710188,887.088452"/>
    <poly id="659523148" type="amenity.parking" color="184,184,179" fill="1" layer="-1.00" shape="1197.974658,726.683550 1198.611393,688.969946 1123.954621,687.716349 1123.318126,725.429959 1197.974658,726.683550"/>
    <poly id="659523148#1" type="building.yes" color="255,230,230" fill="1" layer="-1.00" shape="1197.974658,726.683550 1198.611393,688.969946 1123.954621,687.716349 1123.318126,725.429959 1197.974658,726.683550"/>
    <poly id="659523180" type="leisure.swimming_pool" color="207,245,201" fill="1" layer="-2.00" shape="1073.833266,803.211235 1073.990744,787.744983 1072.210092,787.684033 1072.341794,785.988595 1070.234877,784.820794 1068.927641,785.999183 1067.685242,786.003036 1067.621230,787.443456 1066.437321,787.380656 1066.481646,801.671948 1067.665347,801.668276 1067.670811,803.429761 1068.786446,803.559245 1069.776315,804.143342 1070.559134,804.207386 1072.004321,803.349850 1073.833266,803.211235"/>
    <poly id="659524951" type="building.yes" color="255,230,230" fill="1" layer="-1.00" shape="940.610194,727.271201 958.905950,727.878993 959.550621,708.688805 941.597264,708.091025 941.525553,710.196187 939.686192,710.135440 939.158006,725.879813 940.654935,725.930548 940.610194,727.271201"/>