<?xml version="1.0" encoding="UTF-8"?>

<!-- generated on 2023-10-11 17:20:20 by Eclipse SUMO duarouter Version 1.12.0
<configuration xmlns:xsi="http://www.w3.org/2001/XMLSchema-instance" xsi:noNamespaceSchemaLocation="http://sumo.dlr.de/xsd/duarouterConfiguration.xsd">

    <input>
        <net-file value="/home/eu/stop-detection/groundTruthGenerator/osmOutputDir/osm.net.xml"/>
        <route-files value="/home/eu/stop-detection/groundTruthGenerator/osmOutputDir/osm.motorcycle.trips.xml"/>
    </input>

    <output>
        <output-file value="/home/eu/stop-detection/groundTruthGenerator/osmOutputDir/osm.motorcycle.trips.xml.tmp"/>
        <write-trips value="true"/>
    </output>

    <time>
        <begin value="0"/>
        <end value="3600"/>
    </time>

    <report>
        <no-warnings value="true"/>
        <ignore-errors value="true"/>
        <no-step-log value="true"/>
    </report>

</configuration>
-->

<routes xmlns:xsi="http://www.w3.org/2001/XMLSchema-instance" xsi:noNamespaceSchemaLocation="http://sumo.dlr.de/xsd/routes_file.xsd">
    <vType id="moto_motorcycle" vClass="motorcycle"/>
    <trip id="moto0" type="moto_motorcycle" depart="0.00" departLane="best" departSpeed="max" from="1160435050#0" to="-1109277586#1"/>
    <trip id="moto1" type="moto_motorcycle" depart="32.01" departLane="best" from="-47026382#1" to="-215885158#9"/>
    <trip id="moto2" type="moto_motorcycle" depart="64.03" departLane="best" from="215885158#12" to="210585066#1"/>
    <trip id="moto3" type="moto_motorcycle" depart="96.04" departLane="best" from="73540498#1" to="-11196509#0"/>
    <trip id="moto4" type="moto_motorcycle" depart="128.05" departLane="best" from="-80776637#1" to="-11176415#1"/>
    <trip id="moto5" type="moto_motorcycle" depart="160.06" departLane="best" from="-215885158#7" to="11177970#1"/>
    <trip id="moto6" type="moto_motorcycle" depart="192.08" departLane="best" from="-11177970#1" to="-215885158#3"/>
    <trip id="moto7" type="moto_motorcycle" depart="224.09" departLane="best" from="1160435050#6" to="11183171#1"/>
    <trip id="moto8" type="moto_motorcycle" depart="256.10" departLane="best" from="-215885158#7" to="11198919#1"/>
    <trip id="moto9" type="moto_motorcycle" depart="288.12" departLane="best" from="47026378#4" to="-1038707887#4"/>
    <trip id="moto10" type="moto_motorcycle" depart="320.13" departLane="best" from="47026378#3" to="215795044#1"/>
    <trip id="moto11" type="moto_motorcycle" depart="352.14" departLane="best" from="-73541769#0" to="-127605064#5"/>
    <trip id="moto12" type="moto_motorcycle" depart="384.15" departLane="best" departSpeed="max" from="80776632#0" to="-73540498#2"/>
    <trip id="moto13" type="moto_motorcycle" depart="416.17" departLane="best" from="-11198919#1" to="-11196509#2"/>
    <trip id="moto14" type="moto_motorcycle" depart="448.18" departLane="best" from="47026383#6" to="11198919#5"/>
    <trip id="moto15" type="moto_motorcycle" depart="480.19" departLane="best" from="47026378#3" to="215885158#13"/>
    <trip id="moto16" type="moto_motorcycle" depart="512.21" departLane="best" from="11179420#1" to="80776632#3"/>
    <trip id="moto17" type="moto_motorcycle" depart="544.22" departLane="best" from="-80664630#6" to="11192348#3"/>
    <trip id="moto18" type="moto_motorcycle" depart="576.23" departLane="best" departSpeed="max" from="47026382#0" to="11202155#2"/>
    <trip id="moto20" type="moto_motorcycle" depart="640.26" departLane="best" departSpeed="max" from="215671208#0" to="-11177970#1"/>
    <trip id="moto21" type="moto_motorcycle" depart="672.27" departLane="best" from="-215885158#9" to="-47026382#1"/>
    <trip id="moto22" type="moto_motorcycle" depart="704.28" departLane="best" from="-11196509#2" to="-423220347#1"/>
    <trip id="moto23" type="moto_motorcycle" depart="736.30" departLane="best" from="-11198919#5" to="-47026378#6"/>
    <trip id="moto24" type="moto_motorcycle" depart="768.31" departLane="best" departSpeed="max" from="1160435050#0" to="-80664630#11"/>
    <trip id="moto25" type="moto_motorcycle" depart="800.32" departLane="best" from="-80664630#11" to="-215885158#5"/>
    <trip id="moto26" type="moto_motorcycle" depart="832.33" departLane="best" from="-47026378#5" to="80664630#11"/>
    <trip id="moto27" type="moto_motorcycle" depart="864.35" departLane="best" from="1160435050#6" to="11202155#0"/>
    <trip id="moto28" type="moto_motorcycle" depart="896.36" departLane="best" departSpeed="max" from="-215795055#3" to="215885158#13"/>
    <trip id="moto29" type="moto_motorcycle" depart="928.37" departLane="best" from="-215795044#1" to="-80664630#7"/>
    <trip id="moto30" type="moto_motorcycle" depart="960.39" departLane="best" from="80776637#1" to="127605064#5"/>
    <trip id="moto31" type="moto_motorcycle" depart="992.40" departLane="best" departSpeed="max" from="11192348#0" to="210585066#1"/>
    <trip id="moto32" type="moto_motorcycle" depart="1024.41" departLane="best" from="47026383#1" to="423220347#2"/>
    <trip id="moto33" type="moto_motorcycle" depart="1056.42" departLane="best" from="-423220347#0" to="-11176415#4"/>
    <trip id="moto34" type="moto_motorcycle" depart="1088.44" departLane="best" departSpeed="max" from="-73538114#4" to="-47026378#4"/>
    <trip id="moto35" type="moto_motorcycle" depart="1120.45" departLane="best" from="-215885158#4" to="80664630#4"/>
    <trip id="moto36" type="moto_motorcycle" depart="1152.46" departLane="best" from="73538114#0" to="-67564892#0"/>
    <trip id="moto37" type="moto_motorcycle" depart="1184.48" departLane="best" from="127605064#1" to="-80776632#0"/>
    <trip id="moto38" type="moto_motorcycle" depart="1216.49" departLane="best" from="80664630#1" to="1038707887#7"/>
    <trip id="moto39" type="moto_motorcycle" depart="1248.50" departLane="best" from="-47026378#5" to="-423220349#0"/>
    <trip id="moto40" type="moto_motorcycle" depart="1280.51" departLane="best" from="11192348#3" to="-47026378#3"/>
    <trip id="moto41" type="moto_motorcycle" depart="1312.53" departLane="best" departSpeed="max" from="11196509#0" to="73540498#1"/>
    <trip id="moto42" type="moto_motorcycle" depart="1344.54" departLane="best" from="-80776632#2" to="-215885158#9"/>
    <trip id="moto43" type="moto_motorcycle" depart="1376.55" departLane="best" from="80776637#3" to="11179420#0"/>
    <trip id="moto44" type="moto_motorcycle" depart="1408.57" departLane="best" from="-11198919#1" to="-11177970#1"/>
    <trip id="moto45" type="moto_motorcycle" depart="1440.58" departLane="best" from="-1160435050#6" to="1160435050#6"/>
    <trip id="moto46" type="moto_motorcycle" depart="1472.59" departLane="best" departSpeed="max" from="423220349#0" to="-80776637#1"/>
    <trip id="moto47" type="moto_motorcycle" depart="1504.60" departLane="best" from="-11193557#0" to="-80664630#9"/>
    <trip id="moto48" type="moto_motorcycle" depart="1536.62" departLane="best" from="80776637#3" to="11181663#2"/>
    <trip id="moto49" type="moto_motorcycle" depart="1568.63" departLane="best" from="80776632#3" to="556550852"/>
    <trip id="moto50" type="moto_motorcycle" depart="1600.64" departLane="best" from="-1038707887#7" to="215795055#3"/>
    <trip id="moto51" type="moto_motorcycle" depart="1632.66" departLane="best" from="210328290#4" to="11183171#0"/>
    <trip id="moto52" type="moto_motorcycle" depart="1664.67" departLane="best" from="-47026378#5" to="127605064#5"/>
    <trip id="moto53" type="moto_motorcycle" depart="1696.68" departLane="best" from="-1160435050#6" to="-80776637#3"/>
    <trip id="moto54" type="moto_motorcycle" depart="1728.69" departLane="best" from="1038707887#4" to="80664630#7"/>
    <trip id="moto55" type="moto_motorcycle" depart="1760.71" departLane="best" from="73538114#0" to="-47026378#3"/>
    <trip id="moto56" type="moto_motorcycle" depart="1792.72" departLane="best" from="1109277590#0" to="-215795044#1"/>
    <trip id="moto57" type="moto_motorcycle" depart="1824.73" departLane="best" from="80664630#1" to="73538114#0"/>
    <trip id="moto58" type="moto_motorcycle" depart="1856.75" departLane="best" from="-67564892#0" to="127605064#2"/>
    <trip id="moto59" type="moto_motorcycle" depart="1888.76" departLane="best" from="11198919#2" to="-127605064#5"/>
    <trip id="moto60" type="moto_motorcycle" depart="1920.77" departLane="best" from="215885158#9" to="11183171#1"/>
    <trip id="moto61" type="moto_motorcycle" depart="1952.78" departLane="best" from="423220347#2" to="11181663#2"/>
    <trip id="moto62" type="moto_motorcycle" depart="1984.80" departLane="best" from="-1038707887#1" to="-73538114#1"/>
    <trip id="moto63" type="moto_motorcycle" depart="2016.81" departLane="best" from="-11176415#1" to="80664630#10"/>
    <trip id="moto64" type="moto_motorcycle" depart="2048.82" departLane="best" from="73538114#0" to="47026383#6"/>
    <trip id="moto65" type="moto_motorcycle" depart="2080.84" departLane="best" from="-73538114#1" to="-11192348#0"/>
    <trip id="moto66" type="moto_motorcycle" depart="2112.85" departLane="best" from="73538114#0" to="80664630#6"/>
    <trip id="moto67" type="moto_motorcycle" depart="2144.86" departLane="best" from="-11198919#0" to="1109277589#0"/>
    <trip id="moto68" type="moto_motorcycle" depart="2176.87" departLane="best" departSpeed="max" from="-11193557#2" to="215885158#9"/>
    <trip id="moto69" type="moto_motorcycle" depart="2208.89" departLane="best" from="215885158#9" to="-1160435050#4"/>
    <trip id="moto70" type="moto_motorcycle" depart="2240.90" departLane="best" departSpeed="max" from="1109277586#0" to="11192348#3"/>
    <trip id="moto71" type="moto_motorcycle" depart="2272.91" departLane="best" from="-47026378#5" to="73538114#0"/>
    <trip id="moto72" type="moto_motorcycle" depart="2304.93" departLane="best" from="-80776637#1" to="-215885158#5"/>
    <trip id="moto74" type="moto_motorcycle" depart="2368.95" departLane="best" departSpeed="max" from="-215885158#13" to="-67564892#0"/>
    <trip id="moto75" type="moto_motorcycle" depart="2400.96" departLane="best" from="80776637#3" to="127605064#7"/>
    <trip id="moto76" type="moto_motorcycle" depart="2432.98" departLane="best" from="1003384494#1" to="11179420#1"/>
    <trip id="moto77" type="moto_motorcycle" depart="2464.99" departLane="best" from="-127605064#2" to="-423220347#0"/>
    <trip id="moto78" type="moto_motorcycle" depart="2497.00" departLane="best" from="-73541769#0" to="11198919#0"/>
    <trip id="moto79" type="moto_motorcycle" depart="2529.02" departLane="best" from="-423220347#0" to="-215885158#9"/>
    <trip id="moto80" type="moto_motorcycle" depart="2561.03" departLane="best" departSpeed="max" from="-11193557#2" to="127605064#1"/>
    <trip id="moto81" type="moto_motorcycle" depart="2593.04" departLane="best" from="-423220347#0" to="73541769#0"/>
    <trip id="moto84" type="moto_motorcycle" depart="2689.08" departLane="best" from="-215885158#5" to="-1160435050#5"/>
    <trip id="moto85" type="moto_motorcycle" depart="2721.09" departLane="best" from="80664630#6" to="11193557#2"/>
    <trip id="moto86" type="moto_motorcycle" depart="2753.11" departLane="best" departSpeed="max" from="1109277586#0" to="47026377"/>
    <trip id="moto87" type="moto_motorcycle" depart="2785.12" departLane="best" from="47026378#3" to="-215885158#0"/>
    <trip id="moto88" type="moto_motorcycle" depart="2817.13" departLane="best" from="-11198919#2" to="-80776637#2"/>
    <trip id="moto89" type="moto_motorcycle" depart="2849.14" departLane="best" from="-80776637#1" to="1109277585#1"/>
    <trip id="moto91" type="moto_motorcycle" depart="2913.17" departLane="best" from="80776632#8" to="-11196509#2"/>
    <trip id="moto92" type="moto_motorcycle" depart="2945.18" departLane="best" from="-80776632#2" to="-73540498#2"/>
    <trip id="moto94" type="moto_motorcycle" depart="3009.21" departLane="best" from="-215885158#12" to="1038707887#1"/>
    <trip id="moto95" type="moto_motorcycle" depart="3041.22" departLane="best" from="-80776637#1" to="-47026378#6"/>
    <trip id="moto96" type="moto_motorcycle" depart="3073.23" departLane="best" from="-47026378#1" to="73541792"/>
    <trip id="moto97" type="moto_motorcycle" depart="3105.25" departLane="best" from="1003384494#2" to="556550852"/>
    <trip id="moto98" type="moto_motorcycle" depart="3137.26" departLane="best" departSpeed="max" from="11192348#0" to="-11177970#1"/>
    <trip id="moto99" type="moto_motorcycle" depart="3169.27" departLane="best" from="80776637#3" to="47026383#7"/>
    <trip id="moto100" type="moto_motorcycle" depart="3201.29" departLane="best" from="80776632#3" to="80664630#1"/>
    <trip id="moto101" type="moto_motorcycle" depart="3233.30" departLane="best" from="47026383#6" to="-215671208#0"/>
    <trip id="moto102" type="moto_motorcycle" depart="3265.31" departLane="best" from="1109277588#1" to="-215885158#7"/>
    <trip id="moto103" type="moto_motorcycle" depart="3297.32" departLane="best" from="-80776632#2" to="-11192348#0"/>
    <trip id="moto104" type="moto_motorcycle" depart="3329.34" departLane="best" from="-80664630#6" to="80776637#1"/>
    <trip id="moto105" type="moto_motorcycle" depart="3361.35" departLane="best" from="-47026378#5" to="47026377"/>
    <trip id="moto106" type="moto_motorcycle" depart="3393.36" departLane="best" from="1038707887#4" to="-80776637#1"/>
    <trip id="moto107" type="moto_motorcycle" depart="3425.38" departLane="best" departSpeed="max" from="80776632#0" to="80776637#3"/>
    <trip id="moto108" type="moto_motorcycle" depart="3457.39" departLane="best" departSpeed="max" from="11192348#0" to="215795055#3"/>
    <trip id="moto109" type="moto_motorcycle" depart="3489.40" departLane="best" from="-210585088#1" to="-47026383#1"/>
    <trip id="moto110" type="moto_motorcycle" depart="3521.41" departLane="best" from="80776632#2" to="11196509#2"/>
    <trip id="moto112" type="moto_motorcycle" depart="3585.44" departLane="best" from="-11192348#8" to="11198919#0"/>
</routes>
