<?xml version="1.0" encoding="UTF-8"?>

<!-- generated on 2023-10-11 17:20:21 by Eclipse SUMO duarouter Version 1.12.0
<configuration xmlns:xsi="http://www.w3.org/2001/XMLSchema-instance" xsi:noNamespaceSchemaLocation="http://sumo.dlr.de/xsd/duarouterConfiguration.xsd">

    <input>
        <net-file value="/home/eu/stop-detection/groundTruthGenerator/osmOutputDir/osm.net.xml"/>
        <route-files value="/home/eu/stop-detection/groundTruthGenerator/osmOutputDir/osm.pedestrian.trips.xml"/>
    </input>

    <output>
        <output-file value="/home/eu/stop-detection/groundTruthGenerator/osmOutputDir/osm.pedestrian.rou.xml"/>
        <alternatives-output value="/home/eu/stop-detection/groundTruthGenerator/osmOutputDir/osm.pedestrian.rou.alt.xml"/>
    </output>

    <time>
        <begin value="0"/>
        <end value="3600"/>
    </time>

    <report>
        <no-warnings value="true"/>
        <ignore-errors value="true"/>
        <no-step-log value="true"/>
    </report>

</configuration>
-->

<routes xmlns:xsi="http://www.w3.org/2001/XMLSchema-instance" xsi:noNamespaceSchemaLocation="http://sumo.dlr.de/xsd/routes_file.xsd">
    <vType id="ped_pedestrian" vClass="pedestrian"/>
    <person id="ped0" type="ped_pedestrian" depart="0.00">
        <walk edges="556624739#0 1021241021#2 1021241021#3 1021241021#4 1021241021#5 1021241021#6 556550871#0 556550871#1 556419576#14 556419576#13 556419576#12 556419576#11 556419576#10 -11181663#1"/>
    </person>
    <person id="ped1" type="ped_pedestrian" depart="6.48">
        <walk edges="1050575200 556826753#1 80776632#7 556826755#2 1050575190#0 1050575190#1 215885158#4 215885158#3 556826771#4 556419583#0 -11176415#1 556826770#0 556419586#4 584447114 584441840#0 146831008#4 146831008#3 146831008#2 146831008#1 146831008#0 146831004 549743620#16 1024966100#0 1024966104#2 1021241021#2"/>
    </person>
    <person id="ped2" type="ped_pedestrian" depart="12.97">
        <walk edges="556826782#0 -556826783#2 -556826783#1 -556826783#0 47026383#6 47026383#7 556419584#15 556826814#2 215795044#1 215795044#2 556826772#1 1050575190#3 215885158#4 1050575190#1 1050575190#0 556826755#2 556826755#1 556826753#0"/>
    </person>
    <person id="ped3" type="ped_pedestrian" depart="19.45">
        <walk edges="67571406#5 67571406#4 564831546 1021241020#2 47026378#1 1021241019#1 1021241022#0 -51064594#1"/>
    </person>
    <person id="ped4" type="ped_pedestrian" depart="25.94">
        <walk edges="215795055#0 -423220347#0 998827563#1 -423220347#2 11192348#8 1050575215#1 1050575216#1 11192348#5 11192348#3 -11192348#0"/>
    </person>
    <person id="ped5" type="ped_pedestrian" depart="32.42">
        <walk edges="1021241020#2 1103397426#1 -556624764#0 -556624764#1 -556624764#3 556624764#4 556624764#5 1003384494#2 1003384494#1 1109277589#0 1109277588#2 1109277588#1 556419586#11 556419586#12 556419599#5 556419583#16 556419573#0"/>
    </person>
    <person id="ped6" type="ped_pedestrian" depart="38.91">
        <walk edges="-11181663#3 -11181663#1 556419576#9 556419584#8 556419584#9 549743620#9 47026383#1 47026383#6 47026383#7 556419584#15 556826814#2 215795044#1 215795044#2 556826772#1 1050575190#3 215885158#4 1050575190#1 215885158#7 -80776632#8"/>
    </person>
    <person id="ped7" type="ped_pedestrian" depart="45.39">
        <walk edges="556624760 -556624759#4 556419586#9 549743620#13 556550806#7 549743620#12 556550806#8 556419576#12"/>
    </person>
    <person id="ped8" type="ped_pedestrian" depart="51.88">
        <walk edges="1021241020#4 146831019#1 146831019#2 146831019#3 564831523#1 478555361 67571406#9 584441842 67571406#12 67571406#13 67571406#14 67571406#15 67571406#16 67571406#17 67571406#18 146831016#1 146831008#7 146831008#6 146831008#5 146831008#4 478555364#0 478555364#1 564831529#1 564831553 556419586#7 556419586#8 556419586#9 556419586#10 556419586#11"/>
    </person>
    <person id="ped9" type="ped_pedestrian" depart="58.36">
        <walk edges="564831549 67571406#1 354680404#0 354680398#6 354680398#5 354680398#4 354680398#3 354680398#2 354680398#1 354680398#0 146831008#0 146831008#1 146831008#2 146831008#3 146831008#4 584441840#0 584447114 556419586#4 556826770#0 -1038707887#4"/>
    </person>
    <person id="ped10" type="ped_pedestrian" depart="64.85">
        <walk edges="564831544 67571406#7 67571406#8 67571406#9 584441842 67571406#12 67571406#13 67571406#14 67571406#15 67571406#16 67571406#17 67571406#18 146831016#1 146831008#7 146831008#6 146831018#0 146831018#1 556826770#0"/>
    </person>
    <person id="ped11" type="ped_pedestrian" depart="71.33">
        <walk edges="1109277589#0 1003384494#1 1003384494#2 549743620#22 1021241023#1 -47026378#1 -47026378#3 -47026378#4 -47026378#5 -47026378#6 -73541792 -618194901#1 -618194901#2 -618194901#3 -618194901#4 -618194902#3"/>
    </person>
    <person id="ped12" type="ped_pedestrian" depart="77.82">
        <walk edges="827754801 564831564#1 564831560#3 564831560#2 564831560#1 564831557 556419586#0 556419586#1 556826817#1 -1038707887#7 1038707887#4 556550806#6 549743620#12 556550806#8 556419576#12 1109277586#0"/>
    </person>
    <person id="ped13" type="ped_pedestrian" depart="84.30">
        <walk edges="-556611381#2 556550725#0 556550855#1 -215671208#2 1021241024#1 1021241023#0 1109277590#0 1003384494#2 1003384494#1 1109277589#0 1109277588#2 1109277588#1 556419586#10 556419586#9 -556624759#4 -556624759#3 -556624758"/>
    </person>
    <person id="ped14" type="ped_pedestrian" depart="90.79">
        <walk edges="574186224#2 1021241019#1 1021241023#1 549743620#22 1003384494#2 1003384494#1 1109277589#0 1109277588#2 1109277588#1 556419586#11 556419576#13 556419576#12 556419576#11 556419576#10 556419576#9 556419584#7 556676148#2 556676148#1 556419573#9 556419573#5 556419599#2"/>
    </person>
    <person id="ped15" type="ped_pedestrian" depart="97.27">
        <walk edges="564831546 67571406#3 67571406#2 67571406#1 354680404#0 354680398#6 354680398#5 354680398#4 354680398#3 354680398#2 146831005#1 146831005#0 549743620#19 1024966104#3 1109277589#0 1109277588#2 1109277588#1 556419586#10 549743620#13 556550806#7 549743620#11 556419583#9 47026383#1 47026383#6 47026383#7 556826778#0"/>
    </person>
    <person id="ped16" type="ped_pedestrian" depart="103.75">
        <walk edges="556419575#6 11176415#4 -215885158#0 -215795044#1 -47026383#7 -47026383#6 -47026383#1 556419583#9 549743620#11 556550806#7 549743620#13 556419586#10 1109277588#1 1109277588#2 1109277589#0 1003384494#1 1003384494#2 549743620#22 1021241023#1 -47026378#1 -47026378#3 11193557#0 574186223#6 574186223#5 574186223#4 892949004#1"/>
    </person>
    <person id="ped17" type="ped_pedestrian" depart="110.24">
        <walk edges="1193028556#1 51064594#3 1021241018 1021241019#1 1021241023#1 549743620#22 1003384494#2 1003384494#1 1109277589#0 1109277588#2 1109277588#1 556419586#11 556419576#13 556419576#12 556419576#11 556419576#10 556419576#9 556419576#8"/>
    </person>
    <person id="ped18" type="ped_pedestrian" depart="116.72">
        <walk edges="564831560#5 564831557 556419586#0 556419586#1 556826817#1 -1038707887#7 1038707887#4 556550806#6"/>
    </person>
    <person id="ped19" type="ped_pedestrian" depart="123.21">
        <walk edges="618194901#6 -618194901#5 -618194901#4 -618194901#3 -618194901#2 -618194901#1 -73541792 -47026378#6 -47026378#5 -47026378#4 -47026378#3 -47026378#1 1021241023#1 549743620#22 1003384494#2 1003384494#1 1109277589#0 1109277588#2 1109277588#1 556419586#10 549743620#13 556550806#7 549743620#11 556419583#9 47026383#1 47026383#6 47026383#7 556419584#15"/>
    </person>
    <person id="ped20" type="ped_pedestrian" depart="129.69">
        <walk edges="556826770#5 556826770#4 -215885158#0 -215795044#1 -47026383#7 -47026383#6 -47026383#1 556419583#9 549743620#10 1109277585#1 556550806#8 556419576#12 556419576#13 556419576#14 556550871#1 11202155#1 11202155#2 127605070 -127605070"/>
    </person>
    <person id="ped21" type="ped_pedestrian" depart="136.18">
        <walk edges="1021241021#6 556550871#0 11202155#0 1109277588#1 556419586#10 549743620#13 -1038707887#1 -1038707887#4 -1038707887#7 556826817#0 556550806#1 556550806#0 1050575211#1"/>
    </person>
    <person id="ped22" type="ped_pedestrian" depart="142.66">
        <walk edges="-47026378#5 -47026378#4 -47026378#3 -47026378#1 1021241019#1 1021241022#0"/>
    </person>
    <person id="ped23" type="ped_pedestrian" depart="149.15">
        <walk edges="-556624759#3 -556624759#4 -556624759#5 -556826775#1 556419583#5 556826815#0 -47026383#7 -215795044#1 556419583#2 556419583#1 556419583#0 556826771#4 -215885158#3 -215885158#4 -215885158#5 1050575201#1 1050575202"/>
    </person>
    <person id="ped24" type="ped_pedestrian" depart="155.63">
        <walk edges="556611380#0 -51064594#1 1021241022#0 1021241019#1 1021241023#1 549743620#22 1003384494#2 1003384494#1 1109277589#0 1109277588#2 1109277588#1 556419586#10 549743620#13 556550806#7 549743620#11 556419583#9 -47026383#1 -47026383#6 -47026383#7 -215795044#1 -215885158#0 11176415#4 210585088#1 11198919#0 11198919#1 11198919#2"/>
    </person>
    <person id="ped25" type="ped_pedestrian" depart="162.12">
        <walk edges="1160435050#0 1024966100#2 1024966100#1 1003384494#1"/>
    </person>
    <person id="ped26" type="ped_pedestrian" depart="168.60">
        <walk edges="1050575196#1 1050575204#1 1050575205#1 1050575214 11192348#8 -423220347#2 998827563#1 -423220347#0 -73540498#2 -73540498#1 -73540498#0 73541769#0 73541769#1 -73541769#5 -73541769#0 -618194901#1 750363162"/>
    </person>
    <person id="ped27" type="ped_pedestrian" depart="175.09">
        <walk edges="556624759#4 556419586#9 556419586#10 1109277588#1 1109277588#2 1109277589#0 1003384494#1 1003384494#2 1109277590#0 1021241023#0 1021241024#1 -215671208#2 556550855#1 556550725#0 556550725#1"/>
    </person>
    <person id="ped28" type="ped_pedestrian" depart="181.57">
        <walk edges="-73541769#0 -73541792 -47026378#6 -47026378#5 -47026378#4 -47026378#3 -47026378#1 1021241023#1 549743620#22 1003384494#2 1003384494#1 1109277589#0 1109277588#2 1109277588#1 556419586#10 549743620#13 556550806#7 549743620#11 556419583#9 -47026383#1 -47026383#6 -47026383#7 -215795044#1 556826777#0"/>
    </person>
    <person id="ped29" type="ped_pedestrian" depart="188.06">
        <walk edges="-717076905#1 1193028556#1"/>
    </person>
    <person id="ped30" type="ped_pedestrian" depart="194.54">
        <walk edges="998827562#1 618194912#3 215795055#0 423220349#1 584441841#0 500079235#1 500079235#0 67571406#18 146831016#1 146831008#7 146831008#6 146831008#5 146831008#4 146831008#3 146831008#2 146831008#1 146831008#0 146831004 549743620#16 1024966100#0 1003384494#1 -556624739#1 556624739#0"/>
    </person>
    <person id="ped31" type="ped_pedestrian" depart="201.03">
        <walk edges="556419583#10 549743620#10 556419583#9 -47026383#1 -47026383#6 -47026383#7 -215795044#1 -215885158#0 11176415#4 210585088#1 11198919#0 11198919#1 556826756#1"/>
    </person>
    <person id="ped32" type="ped_pedestrian" depart="207.51">
        <walk edges="574186223#5 574186223#6 11193557#0 -47026378#3 -47026378#1 47026378#1 1021241020#2 564831546 67571406#4 564831525 564831521#1"/>
    </person>
    <person id="ped33" type="ped_pedestrian" depart="213.99">
        <walk edges="1021241021#7 556550871#0 556550871#1 556419576#14 556419576#13 556419576#12 556550806#8 1109277585#1 549743620#10 556419583#9 -47026383#1 -47026383#6 -47026383#7 -215795044#1 -215885158#0 556826772#1 1050575190#3 215885158#4 1050575190#1 215885158#7 215885158#9 -11192348#5"/>
    </person>
    <person id="ped34" type="ped_pedestrian" depart="220.48">
        <walk edges="1050575230#0 835163612#0 1050575196#2"/>
    </person>
    <person id="ped35" type="ped_pedestrian" depart="226.96">
        <walk edges="1021241016 -556624764#0 -556624764#1 564831548 67571406#2 67571406#1 354680404#0 354680398#6 354680398#5 354680398#4 354680398#3 354680398#2 354680398#1 354680398#0 146831008#0 146831008#1 146831008#2 146831008#3 146831008#4 584441840#0 584447114 556419586#4 556826770#0 556826770#1 556826770#2 556826770#3 11176415#4 80664630#6"/>
    </person>
    <person id="ped36" type="ped_pedestrian" depart="233.45">
        <walk edges="67571406#0 146831005#1 354680398#1 354680398#0 146831008#0 146831008#1 146831008#2 146831008#3 146831008#4 584441840#0 584447114 556419586#4 556826770#0 -11176415#1 556419583#0 556826771#4 215885158#3 215885158#4 1050575190#1 1050575190#0 556826755#2 80776632#7 80664630#1 835163612#1 1050575229#1"/>
    </person>
    <person id="ped37" type="ped_pedestrian" depart="239.93">
        <walk edges="556624764#4 556624764#5 1003384494#2 1003384494#1 1024966100#0 549743620#16 146831004 146831008#0 146831008#1 146831008#2 146831008#3"/>
    </person>
    <person id="ped38" type="ped_pedestrian" depart="246.42">
        <walk edges="717076905#1 51064594#3 1021241018 1021241019#1 1021241023#1 549743620#22 1003384494#2 1003384494#1 1109277589#0 1109277588#2 1109277588#1 556419586#10 549743620#13 556550806#7 549743620#11 556419583#9 -47026383#1 -47026383#6 -47026383#7 -215795044#1 -215885158#0 11176415#4 210585088#1 556826774#3 556826787#2 467523294#1"/>
    </person>
    <person id="ped39" type="ped_pedestrian" depart="252.90">
        <walk edges="1050575195#1 -215885158#7 -215885158#5 -215885158#4 -215885158#3 556826771#4 556419583#0 -11176415#1 556826770#0 556419586#4 584447114 584441840#0 146831008#4 146831008#3 146831008#2 146831008#1 146831008#0 146831004 549743620#16 1024966100#0 1024966104#3"/>
    </person>
    <person id="ped40" type="ped_pedestrian" depart="259.39">
        <walk edges="556419583#18 556419583#16 556419583#15 556419583#11 556419583#10 549743620#10 556419583#9 -47026383#1 -47026383#6 -47026383#7 -215795044#1 -215885158#0 556826772#1 1050575190#3 215885158#4 1050575190#1 215885158#7 1050575193#2"/>
    </person>
    <person id="ped41" type="ped_pedestrian" depart="265.87">
        <walk edges="556419584#9 549743620#9 -47026383#1 -47026383#6 -47026383#7 -215795044#1 556419583#2 556826770#2 556826770#1 556826770#0 146831018#1 146831018#0 146831008#6 146831008#7 146831016#1 67571407"/>
    </person>
    <person id="ped42" type="ped_pedestrian" depart="272.36">
        <walk edges="146831008#6 146831008#7 146831016#1 67571406#18 67571406#17 67571406#16 67571406#15 67571406#14 67571406#13 67571406#12 584441842 67571406#9 67571406#8 67571406#7 67571406#6 67571406#5 67571406#4 564831546 1021241020#3"/>
    </person>
    <person id="ped43" type="ped_pedestrian" depart="278.84">
        <walk edges="998827569#1 1050575206#2 1050575208 80776637#2 1050575211#1 556550806#0 556550806#1 1050575202 1050575201#1 -215885158#5 -215885158#4 1050575190#3 1050575190#4 556419573#17 80664630#6 80664630#7 80664630#9 80664630#10 80664630#11 556419573#12"/>
    </person>
    <person id="ped44" type="ped_pedestrian" depart="285.33">
        <walk edges="-556611380#0 1193003685#1 1021241024#0 1021241024#1 1021241021#0 1021241021#1 1021241021#2 1021241021#3 1021241021#4 1021241021#5 1021241021#6 556550871#0 556550871#1 556419576#14 556419576#13 556419576#12 556419576#11 556419576#10 556419576#9 556419576#8 556419576#7 -210328290#5 -210328290#4 -210328290#3"/>
    </person>
    <person id="ped45" type="ped_pedestrian" depart="291.81">
        <walk edges="-556624764#4 556624764#5 1003384494#2 1003384494#1 1109277589#0 1109277588#2 1109277588#1 556419586#10 549743620#13 556550806#7 549743620#11 556419583#9 549743620#9 556419584#10 556550856"/>
    </person>
    <person id="ped46" type="ped_pedestrian" depart="298.30">
        <walk edges="564831530#0 564831530#1 564831531 564831538#0 584441841#1 -423220349#1 215795055#0"/>
    </person>
    <person id="ped47" type="ped_pedestrian" depart="304.78">
        <walk edges="-215885158#5 -215885158#7 80776632#8 80776632#7 80776632#3 80776632#2 127605064#1 127605064#2"/>
    </person>
    <person id="ped48" type="ped_pedestrian" depart="311.26">
        <walk edges="998827564#2 -73538114#1 73538114#0 1050575206#2 1050575208 80776637#2 1050575211#1 556550806#0 556550806#1 1050575202 1050575201#1 -215885158#5 -215885158#4 1050575190#3 1050575190#4 556419573#17 80664630#6 80664630#7 80664630#9 80664630#10 80664630#11 549743620#5 556419575#14 556419575#15"/>
    </person>
    <person id="ped49" type="ped_pedestrian" depart="317.75">
        <walk edges="892949003#3 892949003#2 892949003#1 -11183171#0 -47026378#6 -73541792 -618194901#1 -618194901#2 -618194901#3 -618194901#4 618194901#5"/>
    </person>
    <person id="ped50" type="ped_pedestrian" depart="324.23">
        <walk edges="-1050575236#0 -127605064#2 -127605064#1 556826761#2 556826774#0"/>
    </person>
    <person id="ped51" type="ped_pedestrian" depart="330.72">
        <walk edges="556826755#2 556826755#1 556826753#0 556826754 556419573#18 556419573#17 556419575#6"/>
    </person>
    <person id="ped52" type="ped_pedestrian" depart="337.20">
        <walk edges="1050575196#1 1050575196#0 1050575193#2 215885158#7 1050575190#1 215885158#4 215885158#3 556826771#4 556419583#0 -11176415#1 556826770#0 556419586#4 584447114 584441840#0 146831008#4 146831008#3 146831008#2 146831008#1 146831008#0 146831004 549743620#16 1024966100#0 1003384494#1 556624739#1"/>
    </person>
    <person id="ped53" type="ped_pedestrian" depart="343.69">
        <walk edges="-556624783#0 1021241021#5 1024966100#1 1024966104#3 549743620#19 146831005#0 146831005#1 354680398#2"/>
    </person>
    <person id="ped54" type="ped_pedestrian" depart="350.17">
        <walk edges="423220347#1 423220347#2 1050575206#2 1050575208 80776637#2"/>
    </person>
    <person id="ped55" type="ped_pedestrian" depart="356.66">
        <walk edges="67571406#0 146831005#1 354680398#1 354680398#0 146831008#0 146831008#1 146831008#2 146831008#3 146831008#4 584441840#0 584447114 556419586#4 556826770#0 -11176415#1 556419583#0 556826771#4 -215885158#3 -215885158#4 -215885158#5 -215885158#7 1050575195#1 1050575194#1"/>
    </person>
    <person id="ped56" type="ped_pedestrian" depart="363.14">
        <walk edges="549743620#6 549743620#7 549743620#8 549743620#9 556419583#9 549743620#11 556550806#7 549743620#13 556419586#10 1109277588#1 1109277588#2 1109277589#0 1003384494#1 1003384494#2 549743620#22 1021241023#1 -47026378#1 -47026378#3 -47026378#4 -740634262#2"/>
    </person>
    <person id="ped57" type="ped_pedestrian" depart="369.63">
        <walk edges="717076901#1 717076901#0 717076900 1021241018 1021241019#1 47026378#1 1021241020#2 564831546 67571406#4 67571406#5 67571406#6 67571406#7 67571406#8 67571406#9 67571406#10 146831017#0 146831017#1 -73540498#1 -73540498#2 215795055#0 618194912#3"/>
    </person>
    <person id="ped58" type="ped_pedestrian" depart="376.11">
        <walk edges="1050575217#1 215885158#9 215885158#7 1050575190#1 215885158#4 215885158#3 556826771#4 556419583#0 -11176415#1 556826770#0 556419586#4 584447114 584441840#0 146831008#4 146831008#3 146831008#2 146831008#1 146831008#0 146831004 549743620#16 1024966100#0 1003384494#1 1003384494#2 1109277590#0 1021241023#0 556419599#13 556624738#1"/>
    </person>
    <person id="ped59" type="ped_pedestrian" depart="382.60">
        <walk edges="556550725#1 556550725#0 556550855#1 556550855#0 1021241022#1 1021241022#0 1021241019#1 -47026378#1 -47026378#3 -47026378#4 -47026378#5 -47026378#6 -73541792 -618194901#1 -618194901#2 -618194901#3 -618194901#4 -618194901#5 -618194901#6"/>
    </person>
    <person id="ped60" type="ped_pedestrian" depart="389.08">
        <walk edges="556826813#0 556419575#8"/>
    </person>
    <person id="ped61" type="ped_pedestrian" depart="395.57">
        <walk edges="564831522 564831523#4 478555361 67571406#9 584441842 67571406#12 67571406#13 67571406#14 67571406#15 67571406#16 67571406#17 67571406#18 146831016#1 146831008#7 146831008#6 146831018#0 146831018#1 556826770#0 556826770#1 556826770#2 556826770#3 11176415#4 80664630#6 80664630#7 80664630#9 80664630#10 80664630#11 549743620#5 556419575#14 556419575#15 556419575#16"/>
    </person>
    <person id="ped62" type="ped_pedestrian" depart="402.05">
        <walk edges="-1003384494#1 1024966100#0 549743620#16 146831004 146831008#0 146831008#1 146831008#2 146831008#3 146831008#4 584441840#0 584447114 556419586#4 556826770#0 -11176415#1 556419583#0 556826771#4 215885158#3 215885158#4 1050575190#1 1050575190#0 556826755#2 80776632#7 80664630#1 1050575228#1 1050575233#2"/>
    </person>
    <person id="ped63" type="ped_pedestrian" depart="408.53">
        <walk edges="-1109277590#0 1021241019#0 1021241023#1 -47026378#1 -47026378#3 11193557#0 740634262#1"/>
    </person>
    <person id="ped64" type="ped_pedestrian" depart="415.02">
        <walk edges="67571406#10 584441842 67571406#12 67571406#13 67571406#14 67571406#15 67571406#16 67571406#17 500079235#0 827754801 564831564#1"/>
    </person>
    <person id="ped65" type="ped_pedestrian" depart="421.50">
        <walk edges="1050575224#1 80776632#2 80776632#3 80776632#7 556826755#2 1050575190#0 1050575190#1 215885158#4 1050575190#3 556826772#1 -215885158#0"/>
    </person>
    <person id="ped66" type="ped_pedestrian" depart="427.99">
        <walk edges="67571406#10 584441842 67571406#12 67571406#13 67571406#14 67571406#15 67571406#16 67571406#17 67571406#18 67571407 564831560#2 564831560#1 564831557 556826816#0 556826816#1 556550806#0 80776632#11"/>
    </person>
    <person id="ped67" type="ped_pedestrian" depart="434.47">
        <walk edges="-47026383#7 -47026383#6 -47026383#1 556419583#9 549743620#11"/>
    </person>
    <person id="ped68" type="ped_pedestrian" depart="440.96">
        <walk edges="-423220347#2 1050575206#2 1050575208 80776637#2 1050575211#1 556550806#0 556550806#1 1050575202 1050575201#1 -215885158#5 -215885158#4 1050575190#3 1050575190#4 556419573#17 -80664630#6 -80664630#7 -556826807#1 556826807#0"/>
    </person>
    <person id="ped69" type="ped_pedestrian" depart="447.44">
        <walk edges="556826814#1 -556826779#1"/>
    </person>
    <person id="ped70" type="ped_pedestrian" depart="453.93">
        <walk edges="500079235#0 67571406#18 146831016#1 146831008#7 146831008#6 146831018#0 146831018#1 556826770#0 556826770#1 556826770#2 556826770#3 11176415#4 80664630#6 80664630#7 80664630#9 80664630#10 80664630#11 549743620#5 556419575#14 556419575#15 556419576#6"/>
    </person>
    <person id="ped71" type="ped_pedestrian" depart="460.41">
        <walk edges="1050575195#1 1050575212#1 1050575211#1 80776637#2 1050575208 1050575206#2 423220347#2 998827563#1 618194914#1 618194914#0"/>
    </person>
    <person id="ped72" type="ped_pedestrian" depart="466.90">
        <walk edges="215795055#3 215795055#0 -73540498#2 -73540498#1 146831017#1 146831017#0 67571406#10 67571406#9 67571406#8 67571406#7 67571406#6 67571406#5 67571406#4 564831546 1021241020#2 1103397426#1 1021241016"/>
    </person>
    <person id="ped73" type="ped_pedestrian" depart="473.38">
        <walk edges="556419575#8 -80664630#6 11176415#4 215795044#2 215795044#1 556826814#2 556419584#15 556826778#0"/>
    </person>
    <person id="ped74" type="ped_pedestrian" depart="479.87">
        <walk edges="-80776637#2 -80776637#1 556826816#1 1050575212#1 1050575194#1 80776632#8 80776632#7 1050575199#1 1050575227#1"/>
    </person>
    <person id="ped75" type="ped_pedestrian" depart="486.35">
        <walk edges="998827564#1 998827564#0 998827569#1 564831558#1 564831555#1 556419586#0 556419586#1 556419586#2 556419586#3 556419586#4 556419586#5 556419586#6 556419586#7 -556624759#1 556624760"/>
    </person>
    <person id="ped76" type="ped_pedestrian" depart="492.84">
        <walk edges="354680398#5 354680398#4 354680398#3 354680398#2 146831005#1 146831005#0 549743620#19 1024966104#3 1109277589#0 1109277588#2 1109277588#1 556419586#11 556419586#12 556419599#5 556419599#3 556419584#0 556419573#3"/>
    </person>
    <person id="ped77" type="ped_pedestrian" depart="499.32">
        <walk edges="-556826763#0 556826761#5 556826761#6 556826761#7 556826753#0 556826755#1 556826755#2 1050575190#0 1050575190#1 215885158#4 215885158#3 556826771#4 556419583#0 -11176415#1 556826770#0 556419586#4 584447114 584441840#0 146831008#4 146831008#3 146831008#2 146831008#1 146831008#0 146831004 549743620#16 1024966100#0 1024966104#2 1021241021#3"/>
    </person>
    <person id="ped78" type="ped_pedestrian" depart="505.80">
        <walk edges="1109277588#1 556419586#11"/>
    </person>
    <person id="ped79" type="ped_pedestrian" depart="512.29">
        <walk edges="1021241021#8 1021241021#7 1021241021#6 1021241021#5 1024966100#1 1024966104#3 549743620#19 146831005#0 146831005#1 354680398#2 354680398#3 354680398#4 354680398#5 354680398#6 354680404#0 67571406#1 67571406#2 67571406#3 564831546 1021241020#3 1021241020#4"/>
    </person>
    <person id="ped80" type="ped_pedestrian" depart="518.77">
        <walk edges="-423220349#0 584441841#1 564831538#1 564831540 67571406#18 146831016#1 146831008#7 146831008#6 146831018#0 146831018#1 556826770#0 556826770#1 556826770#2 556826770#3 11176415#4 80664630#6 80664630#7 80664630#9 80664630#10 80664630#11 549743620#5 549743620#3 556550857#2"/>
    </person>
    <person id="ped81" type="ped_pedestrian" depart="525.26">
        <walk edges="1021241021#7 556550871#0 556550871#1 556419576#14 556419576#13 556419576#12 556550806#8 1109277585#1 549743620#10 556419583#9 -47026383#1 -47026383#6 -47026383#7 -215795044#1 -215885158#0 556826772#1 1050575190#3 681868492#1"/>
    </person>
    <person id="ped82" type="ped_pedestrian" depart="531.74">
        <walk edges="618194901#4 -618194901#3 -618194901#2 -618194901#1 -73541769#0 -73541769#5 73541769#1 73541769#0 -73540498#0 -73540498#1 -73540498#2 -423220349#1 -423220349#0"/>
    </person>
    <person id="ped83" type="ped_pedestrian" depart="538.23">
        <walk edges="1021241024#1 1021241021#0 1021241021#1 1021241021#2 1021241021#3 1021241021#4 1021241021#5 1021241021#6 556550871#0 556550871#1 556419576#14 556419576#13 556419576#12 556419576#11 556419576#10 556419576#9 556419584#7 556676148#2 556676148#1 556419573#9 556676147#1"/>
    </person>
    <person id="ped84" type="ped_pedestrian" depart="544.71">
        <walk edges="1021241019#0 1109277590#0 1003384494#2 1003384494#1 1109277589#0 1109277588#2 1109277588#1 556419586#10 549743620#13 556550806#7 549743620#11 556419583#9 549743620#9 556419584#10 556419584#11 -556826783#1 -556826783#2 -556826782#1"/>
    </person>
    <person id="ped85" type="ped_pedestrian" depart="551.20">
        <walk edges="750363161 -618194901#2 -618194901#1 -73541792 -47026378#6 -47026378#5 -47026378#4 -47026378#3 -47026378#1 1021241023#1 549743620#22 1003384494#2 1003384494#1 1109277589#0 1109277588#2 1109277588#1 556419586#11 556419586#12 556419599#5 556419599#3 556419584#0"/>
    </person>
    <person id="ped86" type="ped_pedestrian" depart="557.68">
        <walk edges="478555361 564831523#1 146831019#3 564831524"/>
    </person>
    <person id="ped87" type="ped_pedestrian" depart="564.17">
        <walk edges="564831546 67571406#4 67571406#5 67571406#6 67571406#7 67571406#8 67571406#9 584441842 67571406#12 67571406#13 67571406#14 67571406#15 67571406#16 67571406#17 67571406#18 146831016#1 146831008#7 146831008#6 146831018#0 146831018#1 556826770#0 556826770#1 556826770#2 556826770#3 11176415#4 -80664630#6"/>
    </person>
    <person id="ped88" type="ped_pedestrian" depart="570.65">
        <walk edges="-556624758 -556624759#2 -556624759#1 556419586#7 556419586#6 556419586#5 556419586#4 556826770#0 -11176415#1 556419583#0 556826771#4 215885158#3 215885158#4 1050575190#1 215885158#7 215885158#9"/>
    </person>
    <person id="ped89" type="ped_pedestrian" depart="577.14">
        <walk edges="215795055#3 215795055#0 -423220347#0 998827563#1 -423220347#2 11192348#8 1050575215#1 1050575216#1 11192348#5 47026382#1 47026382#0"/>
    </person>
    <person id="ped90" type="ped_pedestrian" depart="583.62">
        <walk edges="556826777#0 -215795044#1 -47026383#7 -47026383#6 -47026383#1 549743620#9 556419584#9 556419584#8 556419584#7 556676148#3"/>
    </person>
    <person id="ped91" type="ped_pedestrian" depart="590.11">
        <walk edges="998827551#2 1050575207#1 1050575206#2 1050575208 80776637#2 1050575211#1 556550806#0 556550806#1 556826817#0 -1038707887#7 556826770#0 556419586#4 556419586#5 556419586#6 556419586#7 -556624759#0"/>
    </person>
    <person id="ped92" type="ped_pedestrian" depart="596.59">
        <walk edges="146831017#0 67571406#10 67571406#9 67571406#8 67571406#7 67571406#6 67571406#5 67571406#4 67571406#3 67571406#2 67571406#1 354680404#0 354680398#6 354680398#5 354680398#4 354680398#3 354680398#2 146831005#1 146831005#0 549743620#19 1024966104#3 1109277589#0 1109277588#2"/>
    </person>
    <person id="ped93" type="ped_pedestrian" depart="603.08">
        <walk edges="618194901#6 -618194901#5 -618194901#4 -618194901#3 -618194901#2 -618194901#1 -73541792 -47026378#6 -47026378#5 -47026378#4 -47026378#3 -47026378#1 1021241023#1 549743620#22 1003384494#2 1003384494#1 1109277589#0 1109277588#2 1109277588#1 556419586#10 549743620#13 1038707887#1"/>
    </person>
    <person id="ped94" type="ped_pedestrian" depart="609.56">
        <walk edges="-80664630#6 11176415#4 556826770#3 556826770#2 556826770#1 556826770#0 556419586#4 584447114 584441840#0 146831008#4 146831008#3 146831008#2 146831008#1 146831008#0 354680398#0 354680398#1 354680398#2 354680398#3 354680398#4 354680398#5 354680398#6 354680404#0"/>
    </person>
    <person id="ped95" type="ped_pedestrian" depart="616.04">
        <walk edges="215795055#0 423220349#1 584441841#0 500079235#2 500079235#3 564831564#1 564831560#3 564831560#2 564831560#1 564831557 556826816#0 556826816#1 556550806#0 556550806#1 1050575202"/>
    </person>
    <person id="ped96" type="ped_pedestrian" depart="622.53">