<?xml version="1.0" encoding="UTF-8"?>

<!-- generated on 2023-10-11 17:20:20 by Eclipse SUMO duarouter Version 1.12.0
<configuration xmlns:xsi="http://www.w3.org/2001/XMLSchema-instance" xsi:noNamespaceSchemaLocation="http://sumo.dlr.de/xsd/duarouterConfiguration.xsd">

    <input>
        <net-file value="/home/eu/stop-detection/groundTruthGenerator/osmOutputDir/osm.net.xml"/>
        <route-files value="/home/eu/stop-detection/groundTruthGenerator/osmOutputDir/osm.bicycle.trips.xml"/>
    </input>

    <output>
        <output-file value="/home/eu/stop-detection/groundTruthGenerator/osmOutputDir/osm.bicycle.trips.xml.tmp"/>
        <write-trips value="true"/>
    </output>

    <time>
        <begin value="0"/>
        <end value="3600"/>
    </time>

    <report>
        <no-warnings value="true"/>
        <ignore-errors value="true"/>
        <no-step-log value="true"/>
    </report>

</configuration>
-->

<routes xmlns:xsi="http://www.w3.org/2001/XMLSchema-instance" xsi:noNamespaceSchemaLocation="http://sumo.dlr.de/xsd/routes_file.xsd">
    <vType id="bike_bicycle" vClass="bicycle"/>
    <trip id="bike0" type="bike_bicycle" depart="0.00" departLane="best" departSpeed="max" from="423220349#0" to="-1109277584#0"/>
    <trip id="bike1" type="bike_bicycle" depart="16.91" departLane="best" departSpeed="max" from="-556826784#1" to="-556624759#5"/>
    <trip id="bike2" type="bike_bicycle" depart="33.81" departLane="best" departSpeed="max" from="556624783#0" to="556624761"/>
    <trip id="bike3" type="bike_bicycle" depart="50.72" departLane="best" from="717076898" to="-1160435050#4"/>
    <trip id="bike4" type="bike_bicycle" depart="67.62" departLane="best" from="-80664630#9" to="-1109277586#1"/>
    <trip id="bike5" type="bike_bicycle" depart="84.53" departLane="best" from="-556624764#0" to="11193557#2"/>
    <trip id="bike6" type="bike_bicycle" depart="101.44" departLane="best" from="-1050575236#0" to="-556624739#0"/>
    <trip id="bike7" type="bike_bicycle" depart="118.34" departLane="best" from="47026378#1" to="127605064#7"/>
    <trip id="bike8" type="bike_bicycle" depart="135.25" departLane="best" from="-556624764#1" to="215885158#5"/>
    <trip id="bike9" type="bike_bicycle" depart="152.15" departLane="best" from="556826782#1" to="-1021241016"/>
    <trip id="bike10" type="bike_bicycle" depart="169.06" departLane="best" from="556826781#0" to="556624783#1"/>
    <trip id="bike11" type="bike_bicycle" depart="185.97" departLane="best" from="-67564892#0" to="-467523294#0"/>
    <trip id="bike12" type="bike_bicycle" depart="202.87" departLane="best" departSpeed="max" from="80776632#0" to="-717076902"/>
    <trip id="bike13" type="bike_bicycle" depart="219.78" departLane="best" from="-127605064#5" to="-127605064#1"/>
    <trip id="bike14" type="bike_bicycle" depart="236.68" departLane="best" from="618194902#2" to="423220349#1"/>
    <trip id="bike15" type="bike_bicycle" depart="253.59" departLane="best" from="556826782#0" to="556826775#0"/>
    <trip id="bike16" type="bike_bicycle" depart="270.50" departLane="best" from="11192348#8" to="885418652"/>
    <trip id="bike18" type="bike_bicycle" depart="304.31" departLane="best" departSpeed="max" from="556826807#0" to="47026378#5"/>
    <trip id="bike19" type="bike_bicycle" depart="321.21" departLane="best" from="618194914#0" to="215885158#12"/>
    <trip id="bike20" type="bike_bicycle" depart="338.12" departLane="best" from="556624759#1" to="-11176415#4"/>
    <trip id="bike21" type="bike_bicycle" depart="355.03" departLane="best" from="-556624764#5" to="-556826783#0"/>
    <trip id="bike22" type="bike_bicycle" depart="371.93" departLane="best" from="-11198919#2" to="-556624764#4"/>
    <trip id="bike23" type="bike_bicycle" depart="388.84" departLane="best" departSpeed="max" from="-210585066#1" to="-556826779#0"/>
    <trip id="bike24" type="bike_bicycle" depart="405.74" departLane="best" departSpeed="max" from="423220349#0" to="-740634263#0"/>
    <trip id="bike25" type="bike_bicycle" depart="422.65" departLane="best" from="-73541792" to="-556624758"/>
    <trip id="bike26" type="bike_bicycle" depart="439.56" departLane="best" from="-556826783#1" to="80664630#1"/>
    <trip id="bike27" type="bike_bicycle" depart="456.46" departLane="best" from="467523294#1" to="47026377"/>
    <trip id="bike28" type="bike_bicycle" depart="473.37" departLane="best" from="-47026383#1" to="556826756#1"/>
    <trip id="bike29" type="bike_bicycle" depart="490.27" departLane="best" from="-47026378#5" to="-80664630#7"/>
    <trip id="bike32" type="bike_bicycle" depart="540.99" departLane="best" from="618194901#5" to="556826795#1"/>
    <trip id="bike33" type="bike_bicycle" depart="557.90" departLane="best" from="-556624783#1" to="-1109277587#0"/>
    <trip id="bike34" type="bike_bicycle" depart="574.80" departLane="best" from="-618194902#1" to="-556826775#1"/>
    <trip id="bike35" type="bike_bicycle" depart="591.71" departLane="best" from="-556624759#5" to="80664630#4"/>
    <trip id="bike36" type="bike_bicycle" depart="608.61" departLane="best" from="681868488" to="-618194901#2"/>
    <trip id="bike37" type="bike_bicycle" depart="625.52" departLane="best" from="47026378#4" to="-80776632#7"/>
    <trip id="bike38" type="bike_bicycle" depart="642.43" departLane="best" from="73540498#1" to="1109277588#1"/>
    <trip id="bike39" type="bike_bicycle" depart="659.33" departLane="best" from="-556826783#0" to="-556624785#0"/>
    <trip id="bike41" type="bike_bicycle" depart="693.14" departLane="best" departSpeed="max" from="210328290#0" to="73541792"/>
    <trip id="bike42" type="bike_bicycle" depart="710.05" departLane="best" departSpeed="max" from="-750363162" to="-556624759#4"/>
    <trip id="bike43" type="bike_bicycle" depart="726.96" departLane="best" from="902562648#2" to="11198919#0"/>
    <trip id="bike44" type="bike_bicycle" depart="743.86" departLane="best" from="-127605064#2" to="-11177970#0"/>
    <trip id="bike45" type="bike_bicycle" depart="760.77" departLane="best" from="-215795044#1" to="47026383#6"/>
    <trip id="bike46" type="bike_bicycle" depart="777.67" departLane="best" departSpeed="max" from="556826778#0" to="1021241017#0"/>
    <trip id="bike47" type="bike_bicycle" depart="794.58" departLane="best" from="-11192348#8" to="-80664630#9"/>
    <trip id="bike48" type="bike_bicycle" depart="811.49" departLane="best" from="902562648#2" to="1160435050#6"/>
    <trip id="bike49" type="bike_bicycle" depart="828.39" departLane="best" from="80776632#8" to="717076898"/>
    <trip id="bike52" type="bike_bicycle" depart="879.11" departLane="best" from="-556826783#1" to="556550852"/>
    <trip id="bike53" type="bike_bicycle" depart="896.02" departLane="best" from="-215795055#0" to="1038707887#7"/>
    <trip id="bike54" type="bike_bicycle" depart="912.92" departLane="best" from="-902562649" to="80776632#2"/>
    <trip id="bike55" type="bike_bicycle" depart="929.83" departLane="best" from="681868488" to="-556826763#0"/>
    <trip id="bike56" type="bike_bicycle" depart="946.73" departLane="best" from="1109277589#0" to="-47026383#1"/>
    <trip id="bike57" type="bike_bicycle" depart="963.64" departLane="best" from="73540498#0" to="717076905#1"/>
    <trip id="bike58" type="bike_bicycle" depart="980.55" departLane="best" from="-556826807#1" to="556550852"/>
    <trip id="bike59" type="bike_bicycle" depart="997.45" departLane="best" departSpeed="max" from="215795047#0" to="-467523294#0"/>
    <trip id="bike60" type="bike_bicycle" depart="1014.36" departLane="best" departSpeed="max" from="556826757#0" to="127605064#5"/>
    <trip id="bike61" type="bike_bicycle" depart="1031.26" departLane="best" departSpeed="max" from="556826763#0" to="1173591674#0"/>
    <trip id="bike62" type="bike_bicycle" depart="1048.17" departLane="best" from="-1003384494#1" to="-618194902#2"/>
    <trip id="bike63" type="bike_bicycle" depart="1065.08" departLane="best" from="-1050575235#1" to="750363162"/>
    <trip id="bike64" type="bike_bicycle" depart="1081.98" departLane="best" from="681868489#1" to="618194914#0"/>
    <trip id="bike65" type="bike_bicycle" depart="1098.89" departLane="best" from="-618194901#4" to="-11192348#0"/>
    <trip id="bike66" type="bike_bicycle" depart="1115.79" departLane="best" from="681868489#1" to="80664630#7"/>
    <trip id="bike67" type="bike_bicycle" depart="1132.70" departLane="best" from="-1160435050#6" to="11183171#0"/>
    <trip id="bike68" type="bike_bicycle" depart="1149.61" departLane="best" departSpeed="max" from="-11193557#2" to="556826784#1"/>
    <trip id="bike69" type="bike_bicycle" depart="1166.51" departLane="best" departSpeed="max" from="556826758#0" to="-215885158#4"/>
    <trip id="bike70" type="bike_bicycle" depart="1183.42" departLane="best" from="1050575234#1" to="127605070"/>
    <trip id="bike71" type="bike_bicycle" depart="1200.32" departLane="best" from="-556826783#0" to="717076905#1"/>
    <trip id="bike72" type="bike_bicycle" depart="1217.23" departLane="best" from="-80664630#9" to="-556624759#0"/>
    <trip id="bike73" type="bike_bicycle" depart="1234.14" departLane="best" departSpeed="max" from="11196509#0" to="556826775#0"/>
    <trip id="bike74" type="bike_bicycle" depart="1251.04" departLane="best" from="-556624759#1" to="-618194901#1"/>
    <trip id="bike76" type="bike_bicycle" depart="1284.85" departLane="best" from="-80776637#2" to="11202155#0"/>
    <trip id="bike77" type="bike_bicycle" depart="1301.76" departLane="best" from="-215885158#12" to="-556624764#0"/>
    <trip id="bike78" type="bike_bicycle" depart="1318.67" departLane="best" from="-618194914#1" to="215885158#5"/>
    <trip id="bike79" type="bike_bicycle" depart="1335.57" departLane="best" from="-556624783#1" to="-556624759#4"/>
    <trip id="bike80" type="bike_bicycle" depart="1352.48" departLane="best" from="-11196509#2" to="47026383#7"/>
    <trip id="bike81" type="bike_bicycle" depart="1369.38" departLane="best" from="-556624783#1" to="740634262#1"/>
    <trip id="bike82" type="bike_bicycle" depart="1386.29" departLane="best" from="618194913#1" to="-11196509#0"/>
    <trip id="bike83" type="bike_bicycle" depart="1403.20" departLane="best" departSpeed="max" from="-556826756#1" to="556624759#4"/>
    <trip id="bike84" type="bike_bicycle" depart="1420.10" departLane="best" departSpeed="max" from="-556624761" to="-215885158#5"/>
    <trip id="bike85" type="bike_bicycle" depart="1437.01" departLane="best" from="740634262#2" to="215795055#0"/>
    <trip id="bike86" type="bike_bicycle" depart="1453.91" departLane="best" from="1038707887#7" to="556826806#1"/>
    <trip id="bike88" type="bike_bicycle" depart="1487.73" departLane="best" departSpeed="max" from="-127605064#7" to="1038707887#1"/>
    <trip id="bike89" type="bike_bicycle" depart="1504.63" departLane="best" from="-80776632#11" to="11176415#1"/>
    <trip id="bike90" type="bike_bicycle" depart="1521.54" departLane="best" from="556624764#5" to="556624760"/>
    <trip id="bike92" type="bike_bicycle" depart="1555.35" departLane="best" departSpeed="max" from="-761391872" to="-73538114#0"/>
    <trip id="bike94" type="bike_bicycle" depart="1589.16" departLane="best" departSpeed="max" from="-556611381#2" to="1103397426#1"/>
    <trip id="bike95" type="bike_bicycle" depart="1606.07" departLane="best" from="-80664630#9" to="-556826779#0"/>
    <trip id="bike96" type="bike_bicycle" depart="1622.97" departLane="best" from="-556826779#1" to="750363161"/>
    <trip id="bike97" type="bike_bicycle" depart="1639.88" departLane="best" from="-824149883#0" to="717076898"/>
    <trip id="bike98" type="bike_bicycle" depart="1656.78" departLane="best" from="11198919#1" to="-11177970#0"/>
    <trip id="bike99" type="bike_bicycle" depart="1673.69" departLane="best" from="902562650" to="67564892#0"/>
    <trip id="bike100" type="bike_bicycle" depart="1690.60" departLane="best" from="80776632#7" to="750363162"/>
    <trip id="bike101" type="bike_bicycle" depart="1707.50" departLane="best" from="618194902#2" to="-47026378#5"/>
    <trip id="bike102" type="bike_bicycle" depart="1724.41" departLane="best" from="1109277583#1" to="-556624759#1"/>
    <trip id="bike103" type="bike_bicycle" depart="1741.31" departLane="best" departSpeed="max" from="-750363162" to="-11192348#0"/>
    <trip id="bike104" type="bike_bicycle" depart="1758.22" departLane="best" from="-740634262#2" to="892949003#1"/>
    <trip id="bike105" type="bike_bicycle" depart="1775.13" departLane="best" from="-556826783#0" to="556826806#1"/>
    <trip id="bike106" type="bike_bicycle" depart="1792.03" departLane="best" from="-902562650" to="1021241017#0"/>
    <trip id="bike107" type="bike_bicycle" depart="1808.94" departLane="best" departSpeed="max" from="80776632#0" to="902562648#2"/>
    <trip id="bike109" type="bike_bicycle" depart="1842.75" departLane="best" departSpeed="max" from="-47026377" to="-556826805#0"/>
    <trip id="bike110" type="bike_bicycle" depart="1859.66" departLane="best" from="80776632#7" to="215885158#13"/>
    <trip id="bike111" type="bike_bicycle" depart="1876.56" departLane="best" departSpeed="max" from="11196509#0" to="556826781#0"/>
    <trip id="bike112" type="bike_bicycle" depart="1893.47" departLane="best" from="-11192348#3" to="215885158#3"/>
    <trip id="bike113" type="bike_bicycle" depart="1910.37" departLane="best" from="1109277590#0" to="681868492#1"/>
    <trip id="bike114" type="bike_bicycle" depart="1927.28" departLane="best" from="-47026378#1" to="80776632#8"/>
    <trip id="bike115" type="bike_bicycle" depart="1944.19" departLane="best" from="-11198919#5" to="-51064594#1"/>
    <trip id="bike116" type="bike_bicycle" depart="1961.09" departLane="best" from="210585088#1" to="556624761"/>
    <trip id="bike117" type="bike_bicycle" depart="1978.00" departLane="best" departSpeed="max" from="-556676147#1" to="-215795055#0"/>
    <trip id="bike118" type="bike_bicycle" depart="1994.90" departLane="best" from="687411650" to="-556624785#0"/>
    <trip id="bike119" type="bike_bicycle" depart="2011.81" departLane="best" from="210585088#1" to="47026378#5"/>
    <trip id="bike120" type="bike_bicycle" depart="2028.72" departLane="best" from="-80664630#7" to="215885158#3"/>
    <trip id="bike121" type="bike_bicycle" depart="2045.62" departLane="best" from="11183171#0" to="761391872"/>
    <trip id="bike123" type="bike_bicycle" depart="2079.43" departLane="best" departSpeed="max" from="-556826756#1" to="-80776632#7"/>
    <trip id="bike124" type="bike_bicycle" depart="2096.34" departLane="best" from="47026383#6" to="-556826805#0"/>
    <trip id="bike125" type="bike_bicycle" depart="2113.25" departLane="best" from="-618194902#1" to="556826782#1"/>
    <trip id="bike126" type="bike_bicycle" depart="2130.15" departLane="best" from="-11196509#2" to="1109277588#1"/>
    <trip id="bike127" type="bike_bicycle" depart="2147.06" departLane="best" from="902562650" to="902562648#2"/>
    <trip id="bike128" type="bike_bicycle" depart="2163.96" departLane="best" from="-11198919#0" to="-556624759#1"/>
    <trip id="bike129" type="bike_bicycle" depart="2180.87" departLane="best" from="-556826783#0" to="761391872"/>
    <trip id="bike130" type="bike_bicycle" depart="2197.78" departLane="best" from="681868490" to="73538114#3"/>
    <trip id="bike131" type="bike_bicycle" depart="2214.68" departLane="best" from="-73541792" to="-467523294#1"/>
    <trip id="bike132" type="bike_bicycle" depart="2231.59" departLane="best" from="618194901#1" to="556624789#1"/>
    <trip id="bike133" type="bike_bicycle" depart="2248.49" departLane="best" departSpeed="max" from="215795047#0" to="892949003#2"/>
    <trip id="bike134" type="bike_bicycle" depart="2265.40" departLane="best" from="47026378#3" to="-1021241017#0"/>
    <trip id="bike135" type="bike_bicycle" depart="2282.31" departLane="best" from="556826783#2" to="-556826805#0"/>
    <trip id="bike136" type="bike_bicycle" depart="2299.21" departLane="best" departSpeed="max" from="47026382#0" to="80664630#10"/>
    <trip id="bike137" type="bike_bicycle" depart="2316.12" departLane="best" from="-215885158#7" to="-215795047#1"/>
    <trip id="bike139" type="bike_bicycle" depart="2349.93" departLane="best" departSpeed="max" from="-556826784#1" to="467523294#1"/>
    <trip id="bike140" type="bike_bicycle" depart="2366.84" departLane="best" from="556624760" to="-556624739#1"/>
    <trip id="bike141" type="bike_bicycle" depart="2383.74" departLane="best" from="423220347#2" to="-556826775#0"/>
    <trip id="bike142" type="bike_bicycle" depart="2400.65" departLane="best" from="1109277585#1" to="740634262#1"/>
    <trip id="bike143" type="bike_bicycle" depart="2417.55" departLane="best" from="618194902#1" to="-1160435050#5"/>
    <trip id="bike144" type="bike_bicycle" depart="2434.46" departLane="best" from="-80776632#11" to="-556826778#0"/>
    <trip id="bike145" type="bike_bicycle" depart="2451.37" departLane="best" from="-1003384494#2" to="556826788#1"/>
    <trip id="bike146" type="bike_bicycle" depart="2468.27" departLane="best" departSpeed="max" from="423220349#0" to="-556826763#0"/>
    <trip id="bike148" type="bike_bicycle" depart="2502.08" departLane="best" from="-80776632#2" to="-1038707887#1"/>
    <trip id="bike149" type="bike_bicycle" depart="2518.99" departLane="best" from="-11198919#0" to="73538114#3"/>
    <trip id="bike151" type="bike_bicycle" depart="2552.80" departLane="best" from="618194901#1" to="215885158#13"/>
    <trip id="bike152" type="bike_bicycle" depart="2569.71" departLane="best" from="-423220349#1" to="-215885158#3"/>
    <trip id="bike153" type="bike_bicycle" depart="2586.61" departLane="best" from="-618194901#5" to="73541792"/>
    <trip id="bike154" type="bike_bicycle" depart="2603.52" departLane="best" from="556826779#0" to="717076898"/>
    <trip id="bike156" type="bike_bicycle" depart="2637.33" departLane="best" from="-556826779#1" to="-210585088#1"/>
    <trip id="bike157" type="bike_bicycle" depart="2654.24" departLane="best" from="556826775#0" to="73540498#0"/>
    <trip id="bike158" type="bike_bicycle" depart="2671.14" departLane="best" departSpeed="max" from="-761391872" to="47026378#6"/>
    <trip id="bike159" type="bike_bicycle" depart="2688.05" departLane="best" departSpeed="max" from="-47026377" to="750363162"/>
    <trip id="bike160" type="bike_bicycle" depart="2704.95" departLane="best" from="618194914#1" to="885418652"/>
    <trip id="bike161" type="bike_bicycle" depart="2721.86" departLane="best" from="556826782#1" to="73538114#3"/>
    <trip id="bike162" type="bike_bicycle" depart="2738.77" departLane="best" departSpeed="max" from="-1050575235#2" to="556826776#1"/>
    <trip id="bike163" type="bike_bicycle" depart="2755.67" departLane="best" departSpeed="max" from="-618194908" to="761391872"/>
    <trip id="bike164" type="bike_bicycle" depart="2772.58" departLane="best" from="556826780#0" to="717076901#0"/>
    <trip id="bike165" type="bike_bicycle" depart="2789.48" departLane="best" from="556826782#1" to="-556826775#1"/>
    <trip id="bike166" type="bike_bicycle" depart="2806.39" departLane="best" departSpeed="max" from="556826777#0" to="-215671208#0"/>
    <trip id="bike167" type="bike_bicycle" depart="2823.30" departLane="best" from="681868486#1" to="687411650"/>
    <trip id="bike169" type="bike_bicycle" depart="2857.11" departLane="best" from="1003384494#2" to="-556826807#0"/>
    <trip id="bike170" type="bike_bicycle" depart="2874.01" departLane="best" from="556826779#0" to="-556624764#1"/>
    <trip id="bike171" type="bike_bicycle" depart="2890.92" departLane="best" departSpeed="max" from="-1050575235#2" to="-556611380#0"/>
    <trip id="bike172" type="bike_bicycle" depart="2907.83" departLane="best" departSpeed="max" from="-618194906" to="717076901#0"/>
    <trip id="bike173" type="bike_bicycle" depart="2924.73" departLane="best" from="80776632#3" to="-556826779#0"/>
    <trip id="bike174" type="bike_bicycle" depart="2941.64" departLane="best" from="423220349#1" to="-80776637#1"/>
    <trip id="bike175" type="bike_bicycle" depart="2958.54" departLane="best" from="824149882#1" to="127605064#2"/>
    <trip id="bike176" type="bike_bicycle" depart="2975.45" departLane="best" from="80664630#1" to="-215795047#1"/>
    <trip id="bike177" type="bike_bicycle" depart="2992.36" departLane="best" from="80776632#8" to="-47026383#1"/>
    <trip id="bike178" type="bike_bicycle" depart="3009.26" departLane="best" from="80776632#2" to="-556826775#0"/>
    <trip id="bike179" type="bike_bicycle" depart="3026.17" departLane="best" from="-215795044#1" to="1038707887#7"/>
    <trip id="bike180" type="bike_bicycle" depart="3043.07" departLane="best" from="556624764#5" to="-618194901#2"/>
    <trip id="bike181" type="bike_bicycle" depart="3059.98" departLane="best" from="215795044#2" to="11198919#1"/>
    <trip id="bike182" type="bike_bicycle" depart="3076.89" departLane="best" departSpeed="max" from="-740634263#1" to="215885158#12"/>
    <trip id="bike184" type="bike_bicycle" depart="3110.70" departLane="best" from="-1003384494#1" to="750363162"/>
    <trip id="bike186" type="bike_bicycle" depart="3144.51" departLane="best" from="556624783#1" to="556624759#5"/>
    <trip id="bike187" type="bike_bicycle" depart="3161.42" departLane="best" from="-73541769#0" to="-11196509#0"/>
    <trip id="bike188" type="bike_bicycle" depart="3178.32" departLane="best" departSpeed="max" from="47026382#0" to="-618194914#1"/>
    <trip id="bike189" type="bike_bicycle" depart="3195.23" departLane="best" departSpeed="max" from="-618194901#6" to="681868489#1"/>
    <trip id="bike190" type="bike_bicycle" depart="3212.13" departLane="best" from="556624764#0" to="-556826805#0"/>
    <trip id="bike191" type="bike_bicycle" depart="3229.04" departLane="best" from="-618194901#5" to="-889184722#1"/>
    <trip id="bike192" type="bike_bicycle" depart="3245.95" departLane="best" departSpeed="max" from="-761391872" to="-556826783#2"/>
    <trip id="bike193" type="bike_bicycle" depart="3262.85" departLane="best" from="-215885158#3" to="1021241016"/>
    <trip id="bike194" type="bike_bicycle" depart="3279.76" departLane="best" from="80664630#1" to="556624761"/>
    <trip id="bike196" type="bike_bicycle" depart="3313.57" departLane="best" from="-618194901#1" to="127605070"/>
    <trip id="bike197" type="bike_bicycle" depart="3330.48" departLane="best" from="-1003384494#1" to="-556826782#1"/>
    <trip id="bike198" type="bike_bicycle" depart="3347.38" departLane="best" from="-80776632#3" to="215885158#13"/>
    <trip id="bike199" type="bike_bicycle" depart="3364.29" departLane="best" from="47026378#4" to="1109277590#0"/>
    <trip id="bike200" type="bike_bicycle" depart="3381.19" departLane="best" from="-80776637#3" to="-556624759#1"/>
    <trip id="bike202" type="bike_bicycle" depart="3415.01" departLane="best" from="556826779#0" to="-47026378#6"/>
    <trip id="bike203" type="bike_bicycle" depart="3431.91" departLane="best" from="-1160435050#6" to="11198919#5"/>
    <trip id="bike204" type="bike_bicycle" depart="3448.82" departLane="best" from="423220347#1" to="-717076902"/>
    <trip id="bike205" type="bike_bicycle" depart="3465.72" departLane="best" from="556826783#2" to="556826782#1"/>
    <trip id="bike206" type="bike_bicycle" depart="3482.63" departLane="best" from="47026383#6" to="-556624764#0"/>
    <trip id="bike207" type="bike_bicycle" depart="3499.53" departLane="best" from="-556624759#0" to="-1109277584#0"/>
    <trip id="bike208" type="bike_bicycle" depart="3516.44" departLane="best" from="-556826775#1" to="11179420#0"/>
    <trip id="bike209" type="bike_bicycle" depart="3533.35" departLane="best" from="618194907" to="-11196509#0"/>
    <trip id="bike210" type="bike_bicycle" depart="3550.25" departLane="best" from="-80664630#4" to="47026383#7"/>
    <trip id="bike211" type="bike_bicycle" depart="3567.16" departLane="best" departSpeed="max" from="-556624738#1" to="556624782#2"/>
    <trip id="bike212" type="bike_bicycle" depart="3584.06" departLane="best" from="1109277588#1" to="-556624785#0"/>
</routes>
