<?xml version="1.0" encoding="UTF-8"?>

<!-- generated on 2023-10-11 17:20:18 by Eclipse SUMO duarouter Version 1.12.0
<configuration xmlns:xsi="http://www.w3.org/2001/XMLSchema-instance" xsi:noNamespaceSchemaLocation="http://sumo.dlr.de/xsd/duarouterConfiguration.xsd">

    <input>
        <net-file value="/home/eu/stop-detection/groundTruthGenerator/osmOutputDir/osm.net.xml"/>
        <route-files value="/home/eu/stop-detection/groundTruthGenerator/osmOutputDir/osm.passenger.trips.xml"/>
    </input>

    <output>
        <output-file value="/home/eu/stop-detection/groundTruthGenerator/osmOutputDir/osm.passenger.trips.xml.tmp"/>
        <write-trips value="true"/>
    </output>

    <time>
        <begin value="0"/>
        <end value="3600"/>
    </time>

    <report>
        <no-warnings value="true"/>
        <ignore-errors value="true"/>
        <no-step-log value="true"/>
    </report>

</configuration>
-->

<routes xmlns:xsi="http://www.w3.org/2001/XMLSchema-instance" xsi:noNamespaceSchemaLocation="http://sumo.dlr.de/xsd/routes_file.xsd">
    <vType id="veh_passenger" vClass="passenger"/>
    <trip id="veh0" type="veh_passenger" depart="0.00" departLane="best" departSpeed="max" from="215795047#0" to="215795044#1"/>
    <trip id="veh2" type="veh_passenger" depart="21.34" departLane="best" from="1109277583#1" to="-11176415#1"/>
    <trip id="veh3" type="veh_passenger" depart="32.01" departLane="best" from="-423220347#2" to="11181663#2"/>
    <trip id="veh4" type="veh_passenger" depart="42.68" departLane="best" departSpeed="max" from="-11183171#1" to="-215885158#4"/>
    <trip id="veh5" type="veh_passenger" depart="53.35" departLane="best" departSpeed="max" from="210328290#0" to="11193557#2"/>
    <trip id="veh6" type="veh_passenger" depart="64.03" departLane="best" from="-423220349#1" to="1160435050#5"/>
    <trip id="veh7" type="veh_passenger" depart="74.70" departLane="best" departSpeed="max" from="423220349#0" to="-1038707887#4"/>
    <trip id="veh8" type="veh_passenger" depart="85.37" departLane="best" from="-80664630#1" to="-215671208#0"/>
    <trip id="veh9" type="veh_passenger" depart="96.04" departLane="best" departSpeed="max" from="80776632#0" to="-80664630#11"/>
    <trip id="veh10" type="veh_passenger" depart="106.71" departLane="best" from="-127605064#1" to="-11196509#0"/>
    <trip id="veh11" type="veh_passenger" depart="117.38" departLane="best" departSpeed="max" from="11192348#0" to="80776632#11"/>
    <trip id="veh12" type="veh_passenger" depart="128.05" departLane="best" from="-80776637#1" to="11193557#2"/>
    <trip id="veh13" type="veh_passenger" depart="138.72" departLane="best" from="47026378#4" to="127605064#7"/>
    <trip id="veh14" type="veh_passenger" depart="149.39" departLane="best" departSpeed="max" from="215671208#0" to="-11177970#0"/>
    <trip id="veh15" type="veh_passenger" depart="160.06" departLane="best" from="-47026378#3" to="-47026383#1"/>
    <trip id="veh16" type="veh_passenger" depart="170.74" departLane="best" from="-11198919#1" to="-423220349#0"/>
    <trip id="veh17" type="veh_passenger" depart="181.41" departLane="best" from="-73538114#0" to="73541769#1"/>
    <trip id="veh18" type="veh_passenger" depart="192.08" departLane="best" departSpeed="max" from="210328290#0" to="127605064#7"/>
    <trip id="veh19" type="veh_passenger" depart="202.75" departLane="best" departSpeed="max" from="-215795055#3" to="-80776632#7"/>
    <trip id="veh21" type="veh_passenger" depart="224.09" departLane="best" from="11193557#0" to="215795055#0"/>
    <trip id="veh22" type="veh_passenger" depart="234.76" departLane="best" departSpeed="max" from="47026382#0" to="47026377"/>
    <trip id="veh23" type="veh_passenger" depart="245.43" departLane="best" from="-47026378#3" to="-11176415#4"/>
    <trip id="veh24" type="veh_passenger" depart="256.10" departLane="best" departSpeed="max" from="-73541769#5" to="-47026382#0"/>
    <trip id="veh25" type="veh_passenger" depart="266.77" departLane="best" from="-423220347#0" to="73541769#1"/>
    <trip id="veh27" type="veh_passenger" depart="288.12" departLane="best" departSpeed="max" from="210328290#0" to="-80776637#3"/>
    <trip id="veh28" type="veh_passenger" depart="298.79" departLane="best" from="73540498#1" to="1109277589#0"/>
    <trip id="veh29" type="veh_passenger" depart="309.46" departLane="best" from="-67564892#0" to="-47026378#1"/>
    <trip id="veh30" type="veh_passenger" depart="320.13" departLane="best" departSpeed="max" from="11196509#0" to="-47026378#6"/>
    <trip id="veh31" type="veh_passenger" depart="330.80" departLane="best" from="11198919#1" to="73538114#3"/>
    <trip id="veh32" type="veh_passenger" depart="341.47" departLane="best" from="1003384494#2" to="-423220347#2"/>
    <trip id="veh33" type="veh_passenger" depart="352.14" departLane="best" from="80776637#3" to="11181663#2"/>
    <trip id="veh34" type="veh_passenger" depart="362.81" departLane="best" from="-127605064#1" to="-11177970#0"/>
    <trip id="veh35" type="veh_passenger" depart="373.48" departLane="best" departSpeed="max" from="-127605064#7" to="127605070"/>
    <trip id="veh36" type="veh_passenger" depart="384.15" departLane="best" departSpeed="max" from="-11193557#2" to="-80776632#7"/>
    <trip id="veh37" type="veh_passenger" depart="394.83" departLane="best" from="80776637#2" to="11183171#1"/>
    <trip id="veh38" type="veh_passenger" depart="405.50" departLane="best" departSpeed="max" from="80776632#0" to="556550852"/>
    <trip id="veh39" type="veh_passenger" depart="416.17" departLane="best" from="-11176415#1" to="215885158#13"/>
    <trip id="veh40" type="veh_passenger" depart="426.84" departLane="best" departSpeed="max" from="215671208#0" to="11192348#5"/>
    <trip id="veh42" type="veh_passenger" depart="448.18" departLane="best" departSpeed="max" from="-127605064#7" to="1109277585#1"/>
    <trip id="veh44" type="veh_passenger" depart="469.52" departLane="best" departSpeed="max" from="11177970#0" to="-215671208#2"/>
    <trip id="veh45" type="veh_passenger" depart="480.19" departLane="best" from="73540498#0" to="556550852"/>
    <trip id="veh46" type="veh_passenger" depart="490.86" departLane="best" from="-73540498#2" to="127605070"/>
    <trip id="veh47" type="veh_passenger" depart="501.53" departLane="best" from="215885158#7" to="11183171#1"/>
    <trip id="veh48" type="veh_passenger" depart="512.21" departLane="best" from="-1038707887#1" to="-73541792"/>
    <trip id="veh49" type="veh_passenger" depart="522.88" departLane="best" from="-11177970#1" to="73541769#1"/>
    <trip id="veh51" type="veh_passenger" depart="544.22" departLane="best" departSpeed="max" from="-73541769#5" to="-11192348#0"/>
    <trip id="veh53" type="veh_passenger" depart="565.56" departLane="best" from="-1160435050#5" to="11179420#0"/>
    <trip id="veh54" type="veh_passenger" depart="576.23" departLane="best" departSpeed="max" from="-11193557#2" to="47026377"/>
    <trip id="veh55" type="veh_passenger" depart="586.90" departLane="best" from="215885158#12" to="-1160435050#4"/>
    <trip id="veh56" type="veh_passenger" depart="597.57" departLane="best" from="1109277589#0" to="11193557#2"/>
    <trip id="veh57" type="veh_passenger" depart="608.24" departLane="best" from="-67564892#0" to="556550852"/>
    <trip id="veh58" type="veh_passenger" depart="618.92" departLane="best" from="1109277583#1" to="-423220347#0"/>
    <trip id="veh59" type="veh_passenger" depart="629.59" departLane="best" departSpeed="max" from="11192348#0" to="215885158#5"/>
    <trip id="veh60" type="veh_passenger" depart="640.26" departLane="best" from="-215885158#5" to="-73540498#1"/>
    <trip id="veh61" type="veh_passenger" depart="650.93" departLane="best" from="80776637#2" to="210585066#1"/>
    <trip id="veh62" type="veh_passenger" depart="661.60" departLane="best" departSpeed="max" from="1109277586#0" to="11183171#1"/>
    <trip id="veh63" type="veh_passenger" depart="672.27" departLane="best" departSpeed="max" from="-210585066#1" to="-423220349#0"/>
    <trip id="veh64" type="veh_passenger" depart="682.94" departLane="best" from="-80664630#1" to="11202155#2"/>
    <trip id="veh65" type="veh_passenger" depart="693.61" departLane="best" from="-47026378#3" to="-423220347#2"/>
    <trip id="veh66" type="veh_passenger" depart="704.28" departLane="best" departSpeed="max" from="-11193557#2" to="127605070"/>
    <trip id="veh67" type="veh_passenger" depart="714.95" departLane="best" from="-47026378#5" to="210585088#1"/>
    <trip id="veh68" type="veh_passenger" depart="725.62" departLane="best" from="-423220347#1" to="-1160435050#5"/>
    <trip id="veh69" type="veh_passenger" depart="736.30" departLane="best" from="1109277589#0" to="47026377"/>
    <trip id="veh70" type="veh_passenger" depart="746.97" departLane="best" departSpeed="max" from="423220349#0" to="-215885158#0"/>
    <trip id="veh71" type="veh_passenger" depart="757.64" departLane="best" from="-127605064#2" to="1109277583#1"/>
    <trip id="veh72" type="veh_passenger" depart="768.31" departLane="best" from="1109277583#1" to="1109277590#0"/>
    <trip id="veh73" type="veh_passenger" depart="778.98" departLane="best" departSpeed="max" from="215795047#0" to="215671208#2"/>
    <trip id="veh74" type="veh_passenger" depart="789.65" departLane="best" from="80776632#7" to="-11196509#0"/>
    <trip id="veh75" type="veh_passenger" depart="800.32" departLane="best" from="1003384494#2" to="-80664630#4"/>
    <trip id="veh76" type="veh_passenger" depart="810.99" departLane="best" from="47026382#1" to="-47026378#3"/>
    <trip id="veh77" type="veh_passenger" depart="821.66" departLane="best" departSpeed="max" from="-215885158#13" to="1109277588#2"/>
    <trip id="veh78" type="veh_passenger" depart="832.33" departLane="best" from="1109277583#1" to="-47026382#0"/>
    <trip id="veh79" type="veh_passenger" depart="843.01" departLane="best" from="-47026382#1" to="73541769#1"/>
    <trip id="veh80" type="veh_passenger" depart="853.68" departLane="best" departSpeed="max" from="1109277586#0" to="556550852"/>
    <trip id="veh81" type="veh_passenger" depart="864.35" departLane="best" from="11192348#5" to="-11177970#0"/>
    <trip id="veh82" type="veh_passenger" depart="875.02" departLane="best" from="80776637#3" to="51064594#1"/>
    <trip id="veh83" type="veh_passenger" depart="885.69" departLane="best" departSpeed="max" from="80776632#0" to="73541769#1"/>
    <trip id="veh84" type="veh_passenger" depart="896.36" departLane="best" departSpeed="max" from="47026382#0" to="-215671208#0"/>
    <trip id="veh85" type="veh_passenger" depart="907.03" departLane="best" from="1109277590#0" to="-423220347#0"/>
    <trip id="veh86" type="veh_passenger" depart="917.70" departLane="best" from="1003384494#2" to="-11192348#0"/>
    <trip id="veh87" type="veh_passenger" depart="928.37" departLane="best" from="-67564892#0" to="47026377"/>
    <trip id="veh88" type="veh_passenger" depart="939.04" departLane="best" from="1109277588#1" to="1038707887#7"/>
    <trip id="veh89" type="veh_passenger" depart="949.71" departLane="best" departSpeed="max" from="80776632#0" to="80776637#2"/>
    <trip id="veh90" type="veh_passenger" depart="960.39" departLane="best" from="11193557#0" to="215885158#13"/>
    <trip id="veh91" type="veh_passenger" depart="971.06" departLane="best" departSpeed="max" from="-215795055#3" to="-47026383#7"/>
    <trip id="veh92" type="veh_passenger" depart="981.73" departLane="best" departSpeed="max" from="80776632#0" to="11202155#0"/>
    <trip id="veh93" type="veh_passenger" depart="992.40" departLane="best" departSpeed="max" from="11192348#0" to="423220347#2"/>
    <trip id="veh94" type="veh_passenger" depart="1003.07" departLane="best" departSpeed="max" from="-11193557#2" to="11202155#1"/>
    <trip id="veh95" type="veh_passenger" depart="1013.74" departLane="best" departSpeed="max" from="11177970#0" to="51064594#4"/>
    <trip id="veh96" type="veh_passenger" depart="1024.41" departLane="best" departSpeed="max" from="-215795055#3" to="80664630#4"/>
    <trip id="veh97" type="veh_passenger" depart="1035.08" departLane="best" from="-11198919#2" to="-215795055#0"/>
    <trip id="veh98" type="veh_passenger" depart="1045.75" departLane="best" from="-47026378#4" to="-1160435050#4"/>
    <trip id="veh101" type="veh_passenger" depart="1077.77" departLane="best" from="-215885158#7" to="215885158#13"/>
    <trip id="veh102" type="veh_passenger" depart="1088.44" departLane="best" from="-47026378#5" to="-80776637#3"/>
    <trip id="veh103" type="veh_passenger" depart="1099.11" departLane="best" from="210328290#5" to="-67564892#0"/>
    <trip id="veh104" type="veh_passenger" depart="1109.78" departLane="best" departSpeed="max" from="-73541769#5" to="423220349#1"/>
    <trip id="veh105" type="veh_passenger" depart="1120.45" departLane="best" departSpeed="max" from="-11193557#2" to="1109277589#0"/>
    <trip id="veh106" type="veh_passenger" depart="1131.12" departLane="best" from="-11196509#2" to="-423220347#0"/>
    <trip id="veh107" type="veh_passenger" depart="1141.79" departLane="best" from="-67564892#0" to="73541769#1"/>
    <trip id="veh109" type="veh_passenger" depart="1163.13" departLane="best" from="-80776632#3" to="-215671208#0"/>
    <trip id="veh110" type="veh_passenger" depart="1173.80" departLane="best" from="47026378#5" to="215885158#12"/>
    <trip id="veh111" type="veh_passenger" depart="1184.48" departLane="best" departSpeed="max" from="1160435050#0" to="80776632#8"/>
    <trip id="veh112" type="veh_passenger" depart="1195.15" departLane="best" departSpeed="max" from="210328290#0" to="-1038707887#7"/>
    <trip id="veh113" type="veh_passenger" depart="1205.82" departLane="best" from="47026378#1" to="-67564892#0"/>
    <trip id="veh114" type="veh_passenger" depart="1216.49" departLane="best" departSpeed="max" from="210328290#0" to="73541769#1"/>
    <trip id="veh115" type="veh_passenger" depart="1227.16" departLane="best" departSpeed="max" from="-210585066#1" to="-1160435050#4"/>
    <trip id="veh116" type="veh_passenger" depart="1237.83" departLane="best" departSpeed="max" from="-127605064#7" to="11193557#2"/>
    <trip id="veh117" type="veh_passenger" depart="1248.50" departLane="best" departSpeed="max" from="215795047#0" to="-215885158#5"/>
    <trip id="veh118" type="veh_passenger" depart="1259.17" departLane="best" from="127605064#2" to="-47026378#6"/>
    <trip id="veh119" type="veh_passenger" depart="1269.84" departLane="best" from="11176415#1" to="73540498#0"/>
    <trip id="veh120" type="veh_passenger" depart="1280.51" departLane="best" departSpeed="max" from="47026382#0" to="-11196509#0"/>
    <trip id="veh121" type="veh_passenger" depart="1291.18" departLane="best" from="1109277583#1" to="-47026382#0"/>
    <trip id="veh122" type="veh_passenger" depart="1301.86" departLane="best" from="-1038707887#4" to="47026377"/>
    <trip id="veh123" type="veh_passenger" depart="1312.53" departLane="best" from="127605064#5" to="-47026378#5"/>
    <trip id="veh124" type="veh_passenger" depart="1323.20" departLane="best" departSpeed="max" from="215795047#0" to="11193557#2"/>
    <trip id="veh125" type="veh_passenger" depart="1333.87" departLane="best" from="1109277585#1" to="-1038707887#7"/>
    <trip id="veh126" type="veh_passenger" depart="1344.54" departLane="best" from="-11196509#2" to="73538114#0"/>
    <trip id="veh127" type="veh_passenger" depart="1355.21" departLane="best" from="73538114#0" to="11193557#2"/>
    <trip id="veh128" type="veh_passenger" depart="1365.88" departLane="best" from="47026378#5" to="11202155#1"/>
    <trip id="veh129" type="veh_passenger" depart="1376.55" departLane="best" from="-215795055#0" to="-1160435050#4"/>
    <trip id="veh130" type="veh_passenger" depart="1387.22" departLane="best" departSpeed="max" from="-73541769#5" to="73538114#3"/>
    <trip id="veh131" type="veh_passenger" depart="1397.89" departLane="best" departSpeed="max" from="423220349#0" to="556550852"/>
    <trip id="veh133" type="veh_passenger" depart="1419.24" departLane="best" from="-47026382#1" to="-11196509#0"/>
    <trip id="veh134" type="veh_passenger" depart="1429.91" departLane="best" from="1038707887#1" to="127605064#7"/>
    <trip id="veh135" type="veh_passenger" depart="1440.58" departLane="best" departSpeed="max" from="-215795055#3" to="73541769#1"/>
    <trip id="veh136" type="veh_passenger" depart="1451.25" departLane="best" from="47026383#1" to="80776632#11"/>
    <trip id="veh137" type="veh_passenger" depart="1461.92" departLane="best" departSpeed="max" from="-11183171#1" to="215885158#9"/>
    <trip id="veh138" type="veh_passenger" depart="1472.59" departLane="best" from="-73541792" to="73541769#1"/>
    <trip id="veh139" type="veh_passenger" depart="1483.26" departLane="best" departSpeed="max" from="423220349#0" to="556550852"/>
    <trip id="veh140" type="veh_passenger" depart="1493.93" departLane="best" from="423220347#0" to="-11196509#2"/>
    <trip id="veh141" type="veh_passenger" depart="1504.60" departLane="best" from="47026383#7" to="51064594#4"/>
    <trip id="veh142" type="veh_passenger" depart="1515.27" departLane="best" from="-47026378#1" to="47026378#6"/>
    <trip id="veh143" type="veh_passenger" depart="1525.95" departLane="best" from="1109277588#2" to="-73538114#1"/>
    <trip id="veh144" type="veh_passenger" depart="1536.62" departLane="best" from="-11183171#0" to="-215885158#12"/>
    <trip id="veh145" type="veh_passenger" depart="1547.29" departLane="best" departSpeed="max" from="-73541769#5" to="556550852"/>
    <trip id="veh146" type="veh_passenger" depart="1557.96" departLane="best" departSpeed="max" from="80776632#0" to="-47026382#0"/>
    <trip id="veh147" type="veh_passenger" depart="1568.63" departLane="best" departSpeed="max" from="210328290#0" to="1003384494#1"/>
    <trip id="veh148" type="veh_passenger" depart="1579.30" departLane="best" from="80664630#11" to="-1160435050#4"/>
    <trip id="veh149" type="veh_passenger" depart="1589.97" departLane="best" departSpeed="max" from="80776632#0" to="-215671208#2"/>
    <trip id="veh150" type="veh_passenger" depart="1600.64" departLane="best" departSpeed="max" from="80776632#0" to="-47026378#6"/>
    <trip id="veh151" type="veh_passenger" depart="1611.31" departLane="best" departSpeed="max" from="-127605064#7" to="1109277585#1"/>
    <trip id="veh152" type="veh_passenger" depart="1621.98" departLane="best" departSpeed="max" from="215795047#0" to="-73540498#1"/>
    <trip id="veh153" type="veh_passenger" depart="1632.66" departLane="best" departSpeed="max" from="1160435050#0" to="11183171#0"/>
    <trip id="veh154" type="veh_passenger" depart="1643.33" departLane="best" from="-47026383#1" to="215885158#13"/>
    <trip id="veh155" type="veh_passenger" depart="1654.00" departLane="best" from="-1038707887#1" to="73541769#1"/>
    <trip id="veh156" type="veh_passenger" depart="1664.67" departLane="best" departSpeed="max" from="11192348#0" to="215885158#13"/>
    <trip id="veh157" type="veh_passenger" depart="1675.34" departLane="best" departSpeed="max" from="215795047#0" to="215671208#2"/>
    <trip id="veh158" type="veh_passenger" depart="1686.01" departLane="best" from="-80776632#11" to="-11192348#0"/>
    <trip id="veh159" type="veh_passenger" depart="1696.68" departLane="best" departSpeed="max" from="210328290#0" to="-80664630#1"/>
    <trip id="veh160" type="veh_passenger" depart="1707.35" departLane="best" departSpeed="max" from="-73541769#5" to="51064594#3"/>
    <trip id="veh161" type="veh_passenger" depart="1718.02" departLane="best" departSpeed="max" from="215795047#0" to="-67564892#0"/>
    <trip id="veh162" type="veh_passenger" depart="1728.69" departLane="best" departSpeed="max" from="-73541769#5" to="1003384494#2"/>
    <trip id="veh163" type="veh_passenger" depart="1739.36" departLane="best" from="1003384494#2" to="-47026383#7"/>
    <trip id="veh164" type="veh_passenger" depart="1750.04" departLane="best" departSpeed="max" from="-210585066#1" to="1038707887#7"/>
    <trip id="veh165" type="veh_passenger" depart="1760.71" departLane="best" from="73538114#0" to="127605064#7"/>
    <trip id="veh166" type="veh_passenger" depart="1771.38" departLane="best" from="-73541769#0" to="11193557#2"/>
    <trip id="veh167" type="veh_passenger" depart="1782.05" departLane="best" from="-1038707887#1" to="-47026382#1"/>
    <trip id="veh168" type="veh_passenger" depart="1792.72" departLane="best" departSpeed="max" from="210328290#0" to="1109277589#0"/>
    <trip id="veh169" type="veh_passenger" depart="1803.39" departLane="best" departSpeed="max" from="1109277586#0" to="-423220347#0"/>
    <trip id="veh170" type="veh_passenger" depart="1814.06" departLane="best" from="1109277589#0" to="73538114#3"/>
    <trip id="veh171" type="veh_passenger" depart="1824.73" departLane="best" departSpeed="max" from="423220349#0" to="-215671208#0"/>
    <trip id="veh172" type="veh_passenger" depart="1835.40" departLane="best" from="-1160435050#5" to="11183171#1"/>
    <trip id="veh173" type="veh_passenger" depart="1846.07" departLane="best" from="127605064#2" to="-80664630#11"/>
    <trip id="veh174" type="veh_passenger" depart="1856.75" departLane="best" from="47026378#1" to="423220349#1"/>
    <trip id="veh175" type="veh_passenger" depart="1867.42" departLane="best" from="210328290#5" to="-423220349#0"/>
    <trip id="veh176" type="veh_passenger" depart="1878.09" departLane="best" from="-215885158#5" to="-1109277586#1"/>
    <trip id="veh177" type="veh_passenger" depart="1888.76" departLane="best" from="-47026378#6" to="11176415#1"/>
    <trip id="veh178" type="veh_passenger" depart="1899.43" departLane="best" from="1038707887#7" to="127605070"/>
    <trip id="veh179" type="veh_passenger" depart="1910.10" departLane="best" from="-215885158#3" to="215795055#3"/>
    <trip id="veh180" type="veh_passenger" depart="1920.77" departLane="best" departSpeed="max" from="11177970#0" to="-47026378#1"/>
    <trip id="veh181" type="veh_passenger" depart="1931.44" departLane="best" departSpeed="max" from="215795047#0" to="47026377"/>
    <trip id="veh182" type="veh_passenger" depart="1942.11" departLane="best" departSpeed="max" from="-127605064#7" to="1109277583#1"/>
    <trip id="veh183" type="veh_passenger" depart="1952.78" departLane="best" departSpeed="max" from="-215885158#13" to="80664630#11"/>
    <trip id="veh184" type="veh_passenger" depart="1963.45" departLane="best" from="11179420#1" to="-11177970#0"/>
    <trip id="veh185" type="veh_passenger" depart="1974.13" departLane="best" from="-47026382#1" to="51064594#3"/>
    <trip id="veh186" type="veh_passenger" depart="1984.80" departLane="best" from="1109277588#1" to="47026378#3"/>
    <trip id="veh187" type="veh_passenger" depart="1995.47" departLane="best" from="210328290#4" to="80776632#8"/>
    <trip id="veh191" type="veh_passenger" depart="2038.15" departLane="best" from="1109277589#0" to="-47026378#5"/>
    <trip id="veh192" type="veh_passenger" depart="2048.82" departLane="best" from="-47026378#6" to="127605070"/>
    <trip id="veh193" type="veh_passenger" depart="2059.49" departLane="best" from="215885158#12" to="11183171#1"/>
    <trip id="veh194" type="veh_passenger" depart="2070.16" departLane="best" from="1160435050#6" to="-47026382#0"/>
    <trip id="veh195" type="veh_passenger" depart="2080.84" departLane="best" from="-11198919#0" to="-47026382#1"/>
    <trip id="veh196" type="veh_passenger" depart="2091.51" departLane="best" from="-73538114#1" to="-73541769#0"/>
    <trip id="veh197" type="veh_passenger" depart="2102.18" departLane="best" departSpeed="max" from="11192348#0" to="-1160435050#6"/>
    <trip id="veh198" type="veh_passenger" depart="2112.85" departLane="best" from="-47026378#3" to="215795055#3"/>
    <trip id="veh199" type="veh_passenger" depart="2123.52" departLane="best" from="215671208#2" to="-11192348#0"/>
    <trip id="veh200" type="veh_passenger" depart="2134.19" departLane="best" from="1038707887#1" to="11193557#0"/>
    <trip id="veh201" type="veh_passenger" depart="2144.86" departLane="best" from="1109277583#1" to="73540498#0"/>
    <trip id="veh202" type="veh_passenger" depart="2155.53" departLane="best" from="11198919#1" to="215795055#3"/>
    <trip id="veh203" type="veh_passenger" depart="2166.20" departLane="best" departSpeed="max" from="47026382#0" to="47026377"/>
    <trip id="veh204" type="veh_passenger" depart="2176.87" departLane="best" from="-80776637#1" to="-1038707887#4"/>
    <trip id="veh205" type="veh_passenger" depart="2187.54" departLane="best" from="-80664630#6" to="47026377"/>
    <trip id="veh206" type="veh_passenger" depart="2198.22" departLane="best" departSpeed="max" from="47026382#0" to="80664630#10"/>
    <trip id="veh207" type="veh_passenger" depart="2208.89" departLane="best" from="1109277583#1" to="423220347#2"/>
    <trip id="veh208" type="veh_passenger" depart="2219.56" departLane="best" departSpeed="max" from="1109277586#0" to="-11176415#1"/>
    <trip id="veh209" type="veh_passenger" depart="2230.23" departLane="best" from="-73541792" to="215795044#2"/>
    <trip id="veh210" type="veh_passenger" depart="2240.90" departLane="best" from="1003384494#1" to="11196509#2"/>
    <trip id="veh212" type="veh_passenger" depart="2262.24" departLane="best" from="-210585088#1" to="1109277589#0"/>
    <trip id="veh213" type="veh_passenger" depart="2272.91" departLane="best" from="215795055#0" to="-80776632#7"/>
    <trip id="veh214" type="veh_passenger" depart="2283.58" departLane="best" from="-47026383#1" to="-11192348#8"/>
    <trip id="veh215" type="veh_passenger" depart="2294.25" departLane="best" from="-11177970#1" to="11192348#8"/>
    <trip id="veh216" type="veh_passenger" depart="2304.93" departLane="best" from="80776637#3" to="-80664630#9"/>
    <trip id="veh217" type="veh_passenger" depart="2315.60" departLane="best" departSpeed="max" from="210328290#0" to="47026377"/>
    <trip id="veh218" type="veh_passenger" depart="2326.27" departLane="best" departSpeed="max" from="210328290#0" to="47026377"/>
    <trip id="veh219" type="veh_passenger" depart="2336.94" departLane="best" from="-11177970#1" to="-215671208#0"/>
    <trip id="veh220" type="veh_passenger" depart="2347.61" departLane="best" departSpeed="max" from="11196509#0" to="-423220347#1"/>
    <trip id="veh221" type="veh_passenger" depart="2358.28" departLane="best" from="-215885158#0" to="127605064#7"/>
    <trip id="veh222" type="veh_passenger" depart="2368.95" departLane="best" departSpeed="max" from="215795047#0" to="-11198919#5"/>
    <trip id="veh223" type="veh_passenger" depart="2379.62" departLane="best" from="47026378#1" to="80664630#6"/>
    <trip id="veh224" type="veh_passenger" depart="2390.29" departLane="best" departSpeed="max" from="-127605064#7" to="-1109277586#1"/>
    <trip id="veh225" type="veh_passenger" depart="2400.96" departLane="best" departSpeed="max" from="-73541769#5" to="215795044#1"/>
    <trip id="veh226" type="veh_passenger" depart="2411.63" departLane="best" departSpeed="max" from="80776632#0" to="1003384494#1"/>
    <trip id="veh227" type="veh_passenger" depart="2422.31" departLane="best" from="215795044#2" to="-11192348#3"/>
    <trip id="veh228" type="veh_passenger" depart="2432.98" departLane="best" departSpeed="max" from="215671208#0" to="127605070"/>
    <trip id="veh229" type="veh_passenger" depart="2443.65" departLane="best" departSpeed="max" from="-127605064#7" to="47026377"/>
    <trip id="veh230" type="veh_passenger" depart="2454.32" departLane="best" from="1109277585#1" to="-80776632#11"/>
    <trip id="veh231" type="veh_passenger" depart="2464.99" departLane="best" departSpeed="max" from="11177970#0" to="-80664630#4"/>
    <trip id="veh232" type="veh_passenger" depart="2475.66" departLane="best" departSpeed="max" from="-127605064#7" to="80664630#4"/>
    <trip id="veh233" type="veh_passenger" depart="2486.33" departLane="best" from="127605064#5" to="47026383#6"/>
    <trip id="veh234" type="veh_passenger" depart="2497.00" departLane="best" from="215671208#2" to="1109277585#1"/>
    <trip id="veh235" type="veh_passenger" depart="2507.67" departLane="best" departSpeed="max" from="215795047#0" to="80664630#6"/>
    <trip id="veh236" type="veh_passenger" depart="2518.34" departLane="best" from="-73538114#1" to="47026378#4"/>
    <trip id="veh237" type="veh_passenger" depart="2529.02" departLane="best" departSpeed="max" from="11192348#0" to="11177970#1"/>
    <trip id="veh238" type="veh_passenger" depart="2539.69" departLane="best" departSpeed="max" from="1109277586#0" to="215885158#5"/>
    <trip id="veh239" type="veh_passenger" depart="2550.36" departLane="best" from="-73538114#0" to="51064594#4"/>
    <trip id="veh240" type="veh_passenger" depart="2561.03" departLane="best" from="1109277588#2" to="127605064#7"/>
    <trip id="veh241" type="veh_passenger" depart="2571.70" departLane="best" departSpeed="max" from="47026382#0" to="-215795044#1"/>
    <trip id="veh242" type="veh_passenger" depart="2582.37" departLane="best" from="-423220347#1" to="47026378#1"/>
    <trip id="veh243" type="veh_passenger" depart="2593.04" departLane="best" from="-80664630#10" to="73538114#0"/>
    <trip id="veh244" type="veh_passenger" depart="2603.71" departLane="best" departSpeed="max" from="215671208#0" to="-47026382#0"/>
    <trip id="veh245" type="veh_passenger" depart="2614.38" departLane="best" from="-1038707887#7" to="73541792"/>
    <trip id="veh246" type="veh_passenger" depart="2625.05" departLane="best" from="-1160435050#5" to="215885158#13"/>
    <trip id="veh247" type="veh_passenger" depart="2635.72" departLane="best" from="11176415#1" to="47026377"/>
    <trip id="veh249" type="veh_passenger" depart="2657.07" departLane="best" from="11176415#4" to="47026377"/>
    <trip id="veh250" type="veh_passenger" depart="2667.74" departLane="best" from="-127605064#1" to="-423220347#2"/>
    <trip id="veh251" type="veh_passenger" depart="2678.41" departLane="best" departSpeed="max" from="215671208#0" to="-73538114#1"/>