<?xml version="1.0" encoding="UTF-8"?>

<!-- generated on 2023-10-11 17:20:19 by Eclipse SUMO duarouter Version 1.12.0
<configuration xmlns:xsi="http://www.w3.org/2001/XMLSchema-instance" xsi:noNamespaceSchemaLocation="http://sumo.dlr.de/xsd/duarouterConfiguration.xsd">

    <input>
        <net-file value="/home/eu/stop-detection/groundTruthGenerator/osmOutputDir/osm.net.xml"/>
        <route-files value="/home/eu/stop-detection/groundTruthGenerator/osmOutputDir/osm.truck.trips.xml"/>
    </input>

    <output>
        <output-file value="/home/eu/stop-detection/groundTruthGenerator/osmOutputDir/osm.truck.trips.xml.tmp"/>
        <write-trips value="true"/>
    </output>

    <time>
        <begin value="0"/>
        <end value="3600"/>
    </time>

    <report>
        <no-warnings value="true"/>
        <ignore-errors value="true"/>
        <no-step-log value="true"/>
    </report>

</configuration>
-->

<routes xmlns:xsi="http://www.w3.org/2001/XMLSchema-instance" xsi:noNamespaceSchemaLocation="http://sumo.dlr.de/xsd/routes_file.xsd">
    <vType id="truck_truck" vClass="truck"/>
    <trip id="truck0" type="truck_truck" depart="0.00" departLane="best" from="-80776637#1" to="-1109277586#1"/>
    <trip id="truck1" type="truck_truck" depart="16.01" departLane="best" departSpeed="max" from="-215885158#13" to="11181663#2"/>
    <trip id="truck2" type="truck_truck" depart="32.01" departLane="best" departSpeed="max" from="1160435050#0" to="11192348#3"/>
    <trip id="truck3" type="truck_truck" depart="48.02" departLane="best" departSpeed="max" from="-215885158#13" to="11198919#2"/>
    <trip id="truck4" type="truck_truck" depart="64.03" departLane="best" from="-73540498#2" to="-1160435050#4"/>
    <trip id="truck5" type="truck_truck" depart="80.03" departLane="best" from="-11198919#1" to="-11193557#0"/>
    <trip id="truck6" type="truck_truck" depart="96.04" departLane="best" departSpeed="max" from="47026382#0" to="11202155#1"/>
    <trip id="truck7" type="truck_truck" depart="112.04" departLane="best" from="47026378#4" to="127605064#1"/>
    <trip id="truck8" type="truck_truck" depart="128.05" departLane="best" departSpeed="max" from="215671208#0" to="-11177970#0"/>
    <trip id="truck9" type="truck_truck" depart="144.06" departLane="best" departSpeed="max" from="-215885158#13" to="-47026378#6"/>
    <trip id="truck10" type="truck_truck" depart="160.06" departLane="best" departSpeed="max" from="-11193557#2" to="-215885158#7"/>
    <trip id="truck11" type="truck_truck" depart="176.07" departLane="best" from="-11198919#5" to="-47026378#3"/>
    <trip id="truck12" type="truck_truck" depart="192.08" departLane="best" from="-47026378#1" to="73541769#1"/>
    <trip id="truck13" type="truck_truck" depart="208.08" departLane="best" from="-215671208#2" to="215795055#3"/>
    <trip id="truck14" type="truck_truck" depart="224.09" departLane="best" departSpeed="max" from="-215885158#13" to="80664630#1"/>
    <trip id="truck16" type="truck_truck" depart="256.10" departLane="best" from="1160435050#5" to="-80776632#0"/>
    <trip id="truck17" type="truck_truck" depart="272.11" departLane="best" from="73541769#0" to="1109277585#1"/>
    <trip id="truck18" type="truck_truck" depart="288.12" departLane="best" departSpeed="max" from="11196509#0" to="73538114#3"/>
    <trip id="truck19" type="truck_truck" depart="304.12" departLane="best" from="80776637#3" to="11181663#2"/>
    <trip id="truck20" type="truck_truck" depart="320.13" departLane="best" from="-11198919#0" to="-11177970#0"/>
    <trip id="truck21" type="truck_truck" depart="336.13" departLane="best" from="-1160435050#6" to="127605064#7"/>
    <trip id="truck22" type="truck_truck" depart="352.14" departLane="best" from="-11193557#0" to="-80664630#9"/>
    <trip id="truck23" type="truck_truck" depart="368.15" departLane="best" from="80776637#3" to="11183171#1"/>
    <trip id="truck24" type="truck_truck" depart="384.15" departLane="best" from="80776632#11" to="556550852"/>
    <trip id="truck25" type="truck_truck" depart="400.16" departLane="best" departSpeed="max" from="210328290#0" to="11183171#1"/>
    <trip id="truck26" type="truck_truck" depart="416.17" departLane="best" from="-47026378#1" to="127605064#7"/>
    <trip id="truck27" type="truck_truck" depart="432.17" departLane="best" from="-47026383#7" to="127605064#7"/>
    <trip id="truck28" type="truck_truck" depart="448.18" departLane="best" from="11198919#1" to="-1160435050#4"/>
    <trip id="truck29" type="truck_truck" depart="464.19" departLane="best" from="215885158#12" to="11183171#1"/>
    <trip id="truck30" type="truck_truck" depart="480.19" departLane="best" from="215885158#7" to="11183171#1"/>
    <trip id="truck31" type="truck_truck" depart="496.20" departLane="best" from="-11176415#4" to="73541769#1"/>
    <trip id="truck32" type="truck_truck" depart="512.21" departLane="best" from="-11196509#2" to="11177970#1"/>
    <trip id="truck33" type="truck_truck" depart="528.21" departLane="best" departSpeed="max" from="-11193557#2" to="215885158#4"/>
    <trip id="truck34" type="truck_truck" depart="544.22" departLane="best" departSpeed="max" from="1109277586#0" to="11192348#5"/>
    <trip id="truck36" type="truck_truck" depart="576.23" departLane="best" from="80776637#2" to="127605070"/>
    <trip id="truck37" type="truck_truck" depart="592.24" departLane="best" departSpeed="max" from="-11193557#2" to="127605064#7"/>
    <trip id="truck38" type="truck_truck" depart="608.24" departLane="best" departSpeed="max" from="-215885158#13" to="-11198919#2"/>
    <trip id="truck39" type="truck_truck" depart="624.25" departLane="best" from="80664630#4" to="11193557#2"/>
    <trip id="truck40" type="truck_truck" depart="640.26" departLane="best" departSpeed="max" from="1109277586#0" to="423220349#1"/>
    <trip id="truck41" type="truck_truck" depart="656.26" departLane="best" departSpeed="max" from="423220349#0" to="-215671208#0"/>
    <trip id="truck42" type="truck_truck" depart="672.27" departLane="best" departSpeed="max" from="11192348#0" to="-11177970#0"/>
    <trip id="truck43" type="truck_truck" depart="688.28" departLane="best" from="80776632#11" to="73541769#1"/>
    <trip id="truck44" type="truck_truck" depart="704.28" departLane="best" from="11183171#0" to="215885158#13"/>
    <trip id="truck45" type="truck_truck" depart="720.29" departLane="best" from="11176415#4" to="51064594#4"/>
    <trip id="truck46" type="truck_truck" depart="736.30" departLane="best" departSpeed="max" from="-11193557#2" to="1109277585#1"/>
    <trip id="truck47" type="truck_truck" depart="752.30" departLane="best" departSpeed="max" from="-11193557#2" to="-215885158#0"/>
    <trip id="truck48" type="truck_truck" depart="768.31" departLane="best" from="-47026378#1" to="73541769#1"/>
    <trip id="truck50" type="truck_truck" depart="800.32" departLane="best" from="-73541792" to="-1160435050#5"/>
    <trip id="truck51" type="truck_truck" depart="816.33" departLane="best" from="127605064#1" to="73541792"/>
    <trip id="truck52" type="truck_truck" depart="832.33" departLane="best" departSpeed="max" from="-127605064#7" to="-11196509#0"/>
    <trip id="truck53" type="truck_truck" depart="848.34" departLane="best" from="-1160435050#5" to="11192348#8"/>
    <trip id="truck54" type="truck_truck" depart="864.35" departLane="best" departSpeed="max" from="1160435050#0" to="-423220349#0"/>
    <trip id="truck55" type="truck_truck" depart="880.35" departLane="best" from="1109277589#0" to="73540498#0"/>
    <trip id="truck56" type="truck_truck" depart="896.36" departLane="best" from="-80776637#1" to="-47026378#1"/>
    <trip id="truck57" type="truck_truck" depart="912.37" departLane="best" departSpeed="max" from="1160435050#0" to="-423220349#0"/>
    <trip id="truck58" type="truck_truck" depart="928.37" departLane="best" departSpeed="max" from="215795047#0" to="11192348#8"/>
    <trip id="truck59" type="truck_truck" depart="944.38" departLane="best" departSpeed="max" from="-11193557#2" to="73538114#1"/>
    <trip id="truck60" type="truck_truck" depart="960.39" departLane="best" from="47026378#5" to="11198919#0"/>
    <trip id="truck61" type="truck_truck" depart="976.39" departLane="best" from="-423220347#0" to="-11196509#0"/>
    <trip id="truck62" type="truck_truck" depart="992.40" departLane="best" departSpeed="max" from="-210585066#1" to="73541769#1"/>
    <trip id="truck63" type="truck_truck" depart="1008.40" departLane="best" from="-11183171#0" to="215885158#13"/>
    <trip id="truck64" type="truck_truck" depart="1024.41" departLane="best" from="423220347#0" to="-11196509#0"/>
    <trip id="truck65" type="truck_truck" depart="1040.42" departLane="best" departSpeed="max" from="-215885158#13" to="47026378#4"/>
    <trip id="truck66" type="truck_truck" depart="1056.42" departLane="best" departSpeed="max" from="1109277586#0" to="-47026382#0"/>
    <trip id="truck67" type="truck_truck" depart="1072.43" departLane="best" from="-11177970#1" to="-215671208#0"/>
    <trip id="truck68" type="truck_truck" depart="1088.44" departLane="best" departSpeed="max" from="-73538114#4" to="556550852"/>
    <trip id="truck69" type="truck_truck" depart="1104.44" departLane="best" departSpeed="max" from="80776632#0" to="-47026378#3"/>
    <trip id="truck70" type="truck_truck" depart="1120.45" departLane="best" departSpeed="max" from="1160435050#0" to="-80776632#0"/>
    <trip id="truck71" type="truck_truck" depart="1136.46" departLane="best" from="80776632#7" to="11183171#1"/>
    <trip id="truck72" type="truck_truck" depart="1152.46" departLane="best" from="-80664630#4" to="11193557#2"/>
    <trip id="truck73" type="truck_truck" depart="1168.47" departLane="best" from="-1038707887#1" to="73541769#1"/>
    <trip id="truck75" type="truck_truck" depart="1200.48" departLane="best" departSpeed="max" from="-73541769#5" to="-11192348#0"/>
    <trip id="truck76" type="truck_truck" depart="1216.49" departLane="best" departSpeed="max" from="-73538114#4" to="51064594#3"/>
    <trip id="truck77" type="truck_truck" depart="1232.49" departLane="best" departSpeed="max" from="215671208#0" to="-47026382#0"/>
    <trip id="truck78" type="truck_truck" depart="1248.50" departLane="best" from="73540498#0" to="127605064#1"/>
    <trip id="truck79" type="truck_truck" depart="1264.51" departLane="best" departSpeed="max" from="1109277586#0" to="73538114#3"/>
    <trip id="truck80" type="truck_truck" depart="1280.51" departLane="best" departSpeed="max" from="1160435050#0" to="-73538114#1"/>
    <trip id="truck81" type="truck_truck" depart="1296.52" departLane="best" departSpeed="max" from="-215795055#3" to="-1109277586#1"/>
    <trip id="truck82" type="truck_truck" depart="1312.53" departLane="best" from="-215885158#9" to="1109277590#0"/>
    <trip id="truck83" type="truck_truck" depart="1328.53" departLane="best" departSpeed="max" from="-215795055#3" to="215671208#2"/>
    <trip id="truck84" type="truck_truck" depart="1344.54" departLane="best" from="1109277590#0" to="-423220347#1"/>
    <trip id="truck85" type="truck_truck" depart="1360.55" departLane="best" departSpeed="max" from="215795047#0" to="215885158#9"/>
    <trip id="truck86" type="truck_truck" depart="1376.55" departLane="best" from="-423220347#0" to="51064594#3"/>
    <trip id="truck87" type="truck_truck" depart="1392.56" departLane="best" departSpeed="max" from="1109277586#0" to="-423220349#0"/>
    <trip id="truck88" type="truck_truck" depart="1408.57" departLane="best" from="11183171#0" to="-11198919#5"/>
    <trip id="truck89" type="truck_truck" depart="1424.57" departLane="best" departSpeed="max" from="47026382#0" to="80664630#11"/>
    <trip id="truck90" type="truck_truck" depart="1440.58" departLane="best" from="-80776632#8" to="215885158#13"/>
    <trip id="truck91" type="truck_truck" depart="1456.58" departLane="best" departSpeed="max" from="11192348#0" to="11202155#1"/>
    <trip id="truck92" type="truck_truck" depart="1472.59" departLane="best" departSpeed="max" from="-215885158#13" to="-215885158#3"/>
    <trip id="truck93" type="truck_truck" depart="1488.60" departLane="best" from="-73540498#1" to="210585066#1"/>
    <trip id="truck94" type="truck_truck" depart="1504.60" departLane="best" from="-80776632#2" to="-1160435050#6"/>
    <trip id="truck95" type="truck_truck" depart="1520.61" departLane="best" from="-80664630#7" to="11193557#2"/>
    <trip id="truck96" type="truck_truck" depart="1536.62" departLane="best" from="-11183171#0" to="127605064#7"/>
    <trip id="truck97" type="truck_truck" depart="1552.62" departLane="best" departSpeed="max" from="-127605064#7" to="1109277588#1"/>
    <trip id="truck98" type="truck_truck" depart="1568.63" departLane="best" departSpeed="max" from="-215885158#13" to="-47026383#7"/>
    <trip id="truck99" type="truck_truck" depart="1584.64" departLane="best" from="-11176415#4" to="11183171#1"/>
    <trip id="truck100" type="truck_truck" depart="1600.64" departLane="best" departSpeed="max" from="1160435050#0" to="423220347#2"/>
    <trip id="truck101" type="truck_truck" depart="1616.65" departLane="best" departSpeed="max" from="1160435050#0" to="215885158#3"/>
    <trip id="truck102" type="truck_truck" depart="1632.66" departLane="best" departSpeed="max" from="80776632#0" to="-215671208#0"/>
    <trip id="truck103" type="truck_truck" depart="1648.66" departLane="best" from="-11177970#1" to="-1160435050#4"/>
    <trip id="truck105" type="truck_truck" depart="1680.67" departLane="best" departSpeed="max" from="215671208#0" to="-11192348#0"/>
    <trip id="truck106" type="truck_truck" depart="1696.68" departLane="best" departSpeed="max" from="210328290#0" to="127605064#7"/>
    <trip id="truck107" type="truck_truck" depart="1712.69" departLane="best" departSpeed="max" from="47026382#0" to="11202155#1"/>
    <trip id="truck108" type="truck_truck" depart="1728.69" departLane="best" departSpeed="max" from="47026382#0" to="47026378#5"/>
    <trip id="truck109" type="truck_truck" depart="1744.70" departLane="best" departSpeed="max" from="1160435050#0" to="47026382#1"/>
    <trip id="truck110" type="truck_truck" depart="1760.71" departLane="best" from="1003384494#1" to="215885158#12"/>
    <trip id="truck111" type="truck_truck" depart="1776.71" departLane="best" from="47026378#4" to="-11192348#3"/>
    <trip id="truck113" type="truck_truck" depart="1808.73" departLane="best" departSpeed="max" from="47026382#0" to="-215671208#0"/>
    <trip id="truck114" type="truck_truck" depart="1824.73" departLane="best" departSpeed="max" from="-215885158#13" to="47026377"/>
    <trip id="truck115" type="truck_truck" depart="1840.74" departLane="best" from="210585088#1" to="-47026378#1"/>
    <trip id="truck116" type="truck_truck" depart="1856.75" departLane="best" from="-11196509#2" to="215795055#3"/>
    <trip id="truck117" type="truck_truck" depart="1872.75" departLane="best" departSpeed="max" from="210328290#0" to="127605064#7"/>
    <trip id="truck118" type="truck_truck" depart="1888.76" departLane="best" departSpeed="max" from="210328290#0" to="-47026382#0"/>
    <trip id="truck119" type="truck_truck" depart="1904.76" departLane="best" departSpeed="max" from="11196509#0" to="1109277590#0"/>
    <trip id="truck120" type="truck_truck" depart="1920.77" departLane="best" departSpeed="max" from="215795047#0" to="-73538114#0"/>
    <trip id="truck121" type="truck_truck" depart="1936.78" departLane="best" departSpeed="max" from="-215795055#3" to="-11196509#2"/>
    <trip id="truck122" type="truck_truck" depart="1952.78" departLane="best" from="1109277588#2" to="215795055#3"/>
    <trip id="truck123" type="truck_truck" depart="1968.79" departLane="best" from="80776632#3" to="11183171#1"/>
    <trip id="truck124" type="truck_truck" depart="1984.80" departLane="best" from="-47026378#6" to="-11196509#0"/>
    <trip id="truck125" type="truck_truck" depart="2000.80" departLane="best" from="-215795055#0" to="-1109277586#1"/>
    <trip id="truck126" type="truck_truck" depart="2016.81" departLane="best" from="47026383#7" to="11193557#2"/>
    <trip id="truck127" type="truck_truck" depart="2032.82" departLane="best" from="47026378#1" to="-80776632#0"/>
    <trip id="truck128" type="truck_truck" depart="2048.82" departLane="best" departSpeed="max" from="-11193557#2" to="127605064#7"/>
    <trip id="truck129" type="truck_truck" depart="2064.83" departLane="best" from="-11192348#5" to="-1160435050#4"/>
    <trip id="truck130" type="truck_truck" depart="2080.84" departLane="best" from="127605064#1" to="-1160435050#4"/>
    <trip id="truck131" type="truck_truck" depart="2096.84" departLane="best" departSpeed="max" from="11196509#0" to="-47026378#6"/>
    <trip id="truck132" type="truck_truck" depart="2112.85" departLane="best" departSpeed="max" from="210328290#0" to="73541769#1"/>
    <trip id="truck133" type="truck_truck" depart="2128.85" departLane="best" from="127605064#1" to="73541769#1"/>
    <trip id="truck134" type="truck_truck" depart="2144.86" departLane="best" departSpeed="max" from="1160435050#0" to="73540498#1"/>
    <trip id="truck135" type="truck_truck" depart="2160.87" departLane="best" from="47026378#3" to="-11192348#0"/>
    <trip id="truck136" type="truck_truck" depart="2176.87" departLane="best" departSpeed="max" from="215795047#0" to="11193557#2"/>
    <trip id="truck137" type="truck_truck" depart="2192.88" departLane="best" departSpeed="max" from="210328290#0" to="215671208#2"/>
    <trip id="truck138" type="truck_truck" depart="2208.89" departLane="best" from="1109277590#0" to="-11192348#0"/>
    <trip id="truck139" type="truck_truck" depart="2224.89" departLane="best" departSpeed="max" from="-11183171#1" to="-80776637#3"/>
    <trip id="truck140" type="truck_truck" depart="2240.90" departLane="best" departSpeed="max" from="210328290#0" to="-423220349#1"/>
    <trip id="truck141" type="truck_truck" depart="2256.91" departLane="best" departSpeed="max" from="-11183171#1" to="215885158#3"/>
    <trip id="truck142" type="truck_truck" depart="2272.91" departLane="best" from="73541792" to="-215671208#0"/>
    <trip id="truck143" type="truck_truck" depart="2288.92" departLane="best" departSpeed="max" from="11196509#0" to="127605064#7"/>
    <trip id="truck144" type="truck_truck" depart="2304.93" departLane="best" from="1109277589#0" to="-11192348#5"/>
    <trip id="truck145" type="truck_truck" depart="2320.93" departLane="best" from="127605064#5" to="556550852"/>
    <trip id="truck146" type="truck_truck" depart="2336.94" departLane="best" from="1109277583#1" to="-47026382#1"/>
    <trip id="truck147" type="truck_truck" depart="2352.94" departLane="best" from="-80776632#2" to="11181663#2"/>
    <trip id="truck148" type="truck_truck" depart="2368.95" departLane="best" from="11183171#0" to="-80776632#3"/>
    <trip id="truck149" type="truck_truck" depart="2384.96" departLane="best" departSpeed="max" from="-215795055#3" to="-80664630#10"/>
    <trip id="truck150" type="truck_truck" depart="2400.96" departLane="best" from="215795055#0" to="-215671208#2"/>
    <trip id="truck151" type="truck_truck" depart="2416.97" departLane="best" departSpeed="max" from="11192348#0" to="73541769#1"/>
    <trip id="truck152" type="truck_truck" depart="2432.98" departLane="best" from="47026378#5" to="11181663#1"/>
    <trip id="truck153" type="truck_truck" depart="2448.98" departLane="best" from="80664630#1" to="11181663#2"/>
    <trip id="truck154" type="truck_truck" depart="2464.99" departLane="best" from="-80776632#7" to="73541769#1"/>
    <trip id="truck155" type="truck_truck" depart="2481.00" departLane="best" from="-47026378#6" to="-47026382#0"/>
    <trip id="truck156" type="truck_truck" depart="2497.00" departLane="best" departSpeed="max" from="11196509#0" to="80776637#3"/>
    <trip id="truck158" type="truck_truck" depart="2529.02" departLane="best" departSpeed="max" from="-215795055#3" to="215671208#2"/>
    <trip id="truck159" type="truck_truck" depart="2545.02" departLane="best" from="215885158#5" to="-11177970#0"/>
    <trip id="truck160" type="truck_truck" depart="2561.03" departLane="best" from="127605064#1" to="47026378#5"/>
    <trip id="truck161" type="truck_truck" depart="2577.03" departLane="best" departSpeed="max" from="-11183171#1" to="11181663#2"/>
    <trip id="truck162" type="truck_truck" depart="2593.04" departLane="best" departSpeed="max" from="11196509#0" to="556550852"/>
    <trip id="truck163" type="truck_truck" depart="2609.05" departLane="best" from="11177970#1" to="1109277583#1"/>
    <trip id="truck164" type="truck_truck" depart="2625.05" departLane="best" departSpeed="max" from="215671208#0" to="-80776632#2"/>
    <trip id="truck165" type="truck_truck" depart="2641.06" departLane="best" from="-73540498#1" to="210585088#1"/>
    <trip id="truck166" type="truck_truck" depart="2657.07" departLane="best" departSpeed="max" from="47026382#0" to="556550852"/>
    <trip id="truck167" type="truck_truck" depart="2673.07" departLane="best" departSpeed="max" from="215671208#0" to="215885158#4"/>
    <trip id="truck168" type="truck_truck" depart="2689.08" departLane="best" departSpeed="max" from="-11193557#2" to="127605064#7"/>
    <trip id="truck169" type="truck_truck" depart="2705.09" departLane="best" departSpeed="max" from="215795047#0" to="-80776637#3"/>
    <trip id="truck170" type="truck_truck" depart="2721.09" departLane="best" from="210328290#4" to="73538114#3"/>
    <trip id="truck171" type="truck_truck" depart="2737.10" departLane="best" departSpeed="max" from="-210585066#1" to="11183171#1"/>
    <trip id="truck172" type="truck_truck" depart="2753.11" departLane="best" from="11192348#3" to="47026377"/>
    <trip id="truck173" type="truck_truck" depart="2769.11" departLane="best" from="-215671208#2" to="-11192348#0"/>
    <trip id="truck174" type="truck_truck" depart="2785.12" departLane="best" departSpeed="max" from="-127605064#7" to="1109277585#1"/>
    <trip id="truck175" type="truck_truck" depart="2801.12" departLane="best" from="-1038707887#7" to="47026377"/>
    <trip id="truck176" type="truck_truck" depart="2817.13" departLane="best" from="73540498#0" to="210585066#1"/>
    <trip id="truck177" type="truck_truck" depart="2833.14" departLane="best" departSpeed="max" from="-210585066#1" to="1003384494#2"/>
    <trip id="truck178" type="truck_truck" depart="2849.14" departLane="best" from="-73541769#0" to="11198919#1"/>
    <trip id="truck179" type="truck_truck" depart="2865.15" departLane="best" departSpeed="max" from="1160435050#0" to="-80776637#1"/>
    <trip id="truck180" type="truck_truck" depart="2881.16" departLane="best" from="-423220347#0" to="51064594#1"/>
    <trip id="truck181" type="truck_truck" depart="2897.16" departLane="best" from="11192348#5" to="11193557#2"/>
    <trip id="truck182" type="truck_truck" depart="2913.17" departLane="best" from="80776632#3" to="127605070"/>
    <trip id="truck183" type="truck_truck" depart="2929.18" departLane="best" departSpeed="max" from="210328290#0" to="215885158#13"/>
    <trip id="truck184" type="truck_truck" depart="2945.18" departLane="best" from="-11192348#3" to="11202155#2"/>
    <trip id="truck185" type="truck_truck" depart="2961.19" departLane="best" from="-47026382#1" to="47026377"/>
    <trip id="truck186" type="truck_truck" depart="2977.20" departLane="best" from="11198919#0" to="-73541769#0"/>
    <trip id="truck187" type="truck_truck" depart="2993.20" departLane="best" departSpeed="max" from="1160435050#0" to="127605064#2"/>
    <trip id="truck188" type="truck_truck" depart="3009.21" departLane="best" departSpeed="max" from="210328290#0" to="215795055#3"/>
    <trip id="truck190" type="truck_truck" depart="3041.22" departLane="best" departSpeed="max" from="1160435050#0" to="-47026382#0"/>
    <trip id="truck191" type="truck_truck" depart="3057.23" departLane="best" from="-47026383#6" to="215885158#13"/>
    <trip id="truck192" type="truck_truck" depart="3073.23" departLane="best" departSpeed="max" from="423220349#0" to="215885158#13"/>
    <trip id="truck193" type="truck_truck" depart="3089.24" departLane="best" from="-73540498#1" to="-11196509#0"/>
    <trip id="truck194" type="truck_truck" depart="3105.25" departLane="best" departSpeed="max" from="80776632#0" to="-1160435050#4"/>
    <trip id="truck195" type="truck_truck" depart="3121.25" departLane="best" departSpeed="max" from="80776632#0" to="556550852"/>
    <trip id="truck196" type="truck_truck" depart="3137.26" departLane="best" from="215671208#2" to="80776632#3"/>
    <trip id="truck197" type="truck_truck" depart="3153.27" departLane="best" departSpeed="max" from="80776632#0" to="47026377"/>
    <trip id="truck198" type="truck_truck" depart="3169.27" departLane="best" departSpeed="max" from="-73541769#5" to="47026377"/>
    <trip id="truck199" type="truck_truck" depart="3185.28" departLane="best" from="-11176415#1" to="11183171#1"/>
    <trip id="truck200" type="truck_truck" depart="3201.29" departLane="best" departSpeed="max" from="-215885158#13" to="-11183171#0"/>
    <trip id="truck201" type="truck_truck" depart="3217.29" departLane="best" departSpeed="max" from="-127605064#7" to="80664630#10"/>
    <trip id="truck202" type="truck_truck" depart="3233.30" departLane="best" from="-73541792" to="1038707887#1"/>
    <trip id="truck203" type="truck_truck" depart="3249.30" departLane="best" departSpeed="max" from="80776632#0" to="556550852"/>
    <trip id="truck204" type="truck_truck" depart="3265.31" departLane="best" departSpeed="max" from="-73541769#5" to="-80776632#0"/>
    <trip id="truck205" type="truck_truck" depart="3281.32" departLane="best" departSpeed="max" from="-215795055#3" to="-11196509#2"/>
    <trip id="truck206" type="truck_truck" depart="3297.32" departLane="best" departSpeed="max" from="47026382#0" to="1109277583#1"/>
    <trip id="truck207" type="truck_truck" depart="3313.33" departLane="best" departSpeed="max" from="-127605064#7" to="11193557#2"/>
    <trip id="truck208" type="truck_truck" depart="3329.34" departLane="best" departSpeed="max" from="-11193557#2" to="215885158#5"/>
    <trip id="truck209" type="truck_truck" depart="3345.34" departLane="best" from="127605064#1" to="-1109277586#1"/>
    <trip id="truck210" type="truck_truck" depart="3361.35" departLane="best" from="-11176415#1" to="47026377"/>
    <trip id="truck211" type="truck_truck" depart="3377.36" departLane="best" from="-215795044#1" to="-11177970#0"/>
    <trip id="truck212" type="truck_truck" depart="3393.36" departLane="best" departSpeed="max" from="215795047#0" to="11183171#1"/>
    <trip id="truck213" type="truck_truck" depart="3409.37" departLane="best" departSpeed="max" from="215795047#0" to="1109277590#0"/>
    <trip id="truck214" type="truck_truck" depart="3425.38" departLane="best" from="80664630#9" to="-11177970#0"/>
    <trip id="truck215" type="truck_truck" depart="3441.38" departLane="best" from="215885158#9" to="556550852"/>
    <trip id="truck216" type="truck_truck" depart="3457.39" departLane="best" departSpeed="max" from="11177970#0" to="1109277585#1"/>
    <trip id="truck217" type="truck_truck" depart="3473.39" departLane="best" departSpeed="max" from="80776632#0" to="-11177970#1"/>
    <trip id="truck218" type="truck_truck" depart="3489.40" departLane="best" departSpeed="max" from="1109277586#0" to="-80776632#0"/>
    <trip id="truck219" type="truck_truck" depart="3505.41" departLane="best" departSpeed="max" from="210328290#0" to="11179420#0"/>
    <trip id="truck220" type="truck_truck" depart="3521.41" departLane="best" from="73540498#2" to="-11192348#0"/>
    <trip id="truck221" type="truck_truck" depart="3537.42" departLane="best" departSpeed="max" from="1160435050#0" to="11192348#5"/>
    <trip id="truck222" type="truck_truck" depart="3553.43" departLane="best" from="11198919#0" to="-11193557#0"/>
    <trip id="truck223" type="truck_truck" depart="3569.43" departLane="best" from="210585088#1" to="51064594#4"/>
    <trip id="truck224" type="truck_truck" depart="3585.44" departLane="best" departSpeed="max" from="1160435050#0" to="215885158#7"/>
</routes>
