<?xml version="1.0" encoding="UTF-8"?>

<!-- generated on 2023-10-11 17:20:21.037107 by osmWebWizard.py UNKNOWN
  options: -o osmOutputDir
-->

<routes xmlns:xsi="http://www.w3.org/2001/XMLSchema-instance" xsi:noNamespaceSchemaLocation="http://sumo.dlr.de/xsd/routes_file.xsd">
    <vType id="ped_pedestrian" vClass="pedestrian"/>
    <person id="ped0" depart="0.00" type="ped_pedestrian">
        <walk from="556624739#0" to="-11181663#1"/>
    </person>
    <person id="ped1" depart="6.48" type="ped_pedestrian">
        <walk from="1050575200" to="1021241021#2"/>
    </person>
    <person id="ped2" depart="12.97" type="ped_pedestrian">
        <walk from="556826782#0" to="556826753#0"/>
    </person>
    <person id="ped3" depart="19.45" type="ped_pedestrian">
        <walk from="67571406#5" to="-51064594#1"/>
    </person>
    <person id="ped4" depart="25.94" type="ped_pedestrian">
        <walk from="215795055#0" to="-11192348#0"/>
    </person>
    <person id="ped5" depart="32.42" type="ped_pedestrian">
        <walk from="1021241020#2" to="556419573#0"/>
    </person>
    <person id="ped6" depart="38.91" type="ped_pedestrian">
        <walk from="-11181663#3" to="-80776632#8"/>
    </person>
    <person id="ped7" depart="45.39" type="ped_pedestrian">
        <walk from="556624760" to="556419576#12"/>
    </person>
    <person id="ped8" depart="51.88" type="ped_pedestrian">
        <walk from="1021241020#4" to="556419586#11"/>
    </person>
    <person id="ped9" depart="58.36" type="ped_pedestrian">
        <walk from="564831549" to="-1038707887#4"/>
    </person>
    <person id="ped10" depart="64.85" type="ped_pedestrian">
        <walk from="564831544" to="556826770#0"/>
    </person>
    <person id="ped11" depart="71.33" type="ped_pedestrian">
        <walk from="1109277589#0" to="-618194902#3"/>
    </person>
    <person id="ped12" depart="77.82" type="ped_pedestrian">
        <walk from="827754801" to="1109277586#0"/>
    </person>
    <person id="ped13" depart="84.30" type="ped_pedestrian">
        <walk from="-556611381#2" to="-556624758"/>
    </person>
    <person id="ped14" depart="90.79" type="ped_pedestrian">
        <walk from="574186224#2" to="556419599#2"/>
    </person>
    <person id="ped15" depart="97.27" type="ped_pedestrian">
        <walk from="564831546" to="556826778#0"/>
    </person>
    <person id="ped16" depart="103.75" type="ped_pedestrian">
        <walk from="556419575#6" to="892949004#1"/>
    </person>
    <person id="ped17" depart="110.24" type="ped_pedestrian">
        <walk from="1193028556#1" to="556419576#8"/>
    </person>
    <person id="ped18" depart="116.72" type="ped_pedestrian">
        <walk from="564831560#5" to="556550806#6"/>
    </person>
    <person id="ped19" depart="123.21" type="ped_pedestrian">
        <walk from="618194901#6" to="556419584#15"/>
    </person>
    <person id="ped20" depart="129.69" type="ped_pedestrian">
        <walk from="556826770#5" to="-127605070"/>
    </person>
    <person id="ped21" depart="136.18" type="ped_pedestrian">
        <walk from="1021241021#6" to="1050575211#1"/>
    </person>
    <person id="ped22" depart="142.66" type="ped_pedestrian">
        <walk from="-47026378#5" to="1021241022#0"/>
    </person>
    <person id="ped23" depart="149.15" type="ped_pedestrian">
        <walk from="-556624759#3" to="1050575202"/>
    </person>
    <person id="ped24" depart="155.63" type="ped_pedestrian">
        <walk from="556611380#0" to="11198919#2"/>
    </person>
    <person id="ped25" depart="162.12" type="ped_pedestrian">
        <walk from="1160435050#0" to="1003384494#1"/>
    </person>
    <person id="ped26" depart="168.60" type="ped_pedestrian">
        <walk from="1050575196#1" to="750363162"/>
    </person>
    <person id="ped27" depart="175.09" type="ped_pedestrian">
        <walk from="556624759#4" to="556550725#1"/>
    </person>
    <person id="ped28" depart="181.57" type="ped_pedestrian">
        <walk from="-73541769#0" to="556826777#0"/>
    </person>
    <person id="ped29" depart="188.06" type="ped_pedestrian">
        <walk from="-717076905#1" to="1193028556#1"/>
    </person>
    <person id="ped30" depart="194.54" type="ped_pedestrian">
        <walk from="998827562#1" to="556624739#0"/>
    </person>
    <person id="ped31" depart="201.03" type="ped_pedestrian">
        <walk from="556419583#10" to="556826756#1"/>
    </person>
    <person id="ped32" depart="207.51" type="ped_pedestrian">
        <walk from="574186223#5" to="564831521#1"/>
    </person>
    <person id="ped33" depart="213.99" type="ped_pedestrian">
        <walk from="1021241021#7" to="-11192348#5"/>
    </person>
    <person id="ped34" depart="220.48" type="ped_pedestrian">
        <walk from="1050575230#0" to="1050575196#2"/>
    </person>
    <person id="ped35" depart="226.96" type="ped_pedestrian">
        <walk from="1021241016" to="80664630#6"/>
    </person>
    <person id="ped36" depart="233.45" type="ped_pedestrian">
        <walk from="67571406#0" to="1050575229#1"/>
    </person>
    <person id="ped37" depart="239.93" type="ped_pedestrian">
        <walk from="556624764#4" to="146831008#3"/>
    </person>
    <person id="ped38" depart="246.42" type="ped_pedestrian">
        <walk from="717076905#1" to="467523294#1"/>
    </person>
    <person id="ped39" depart="252.90" type="ped_pedestrian">
        <walk from="1050575195#1" to="1024966104#3"/>
    </person>
    <person id="ped40" depart="259.39" type="ped_pedestrian">
        <walk from="556419583#18" to="1050575193#2"/>
    </person>
    <person id="ped41" depart="265.87" type="ped_pedestrian">
        <walk from="556419584#9" to="67571407"/>
    </person>
    <person id="ped42" depart="272.36" type="ped_pedestrian">
        <walk from="146831008#6" to="1021241020#3"/>
    </person>
    <person id="ped43" depart="278.84" type="ped_pedestrian">
        <walk from="998827569#1" to="556419573#12"/>
    </person>
    <person id="ped44" depart="285.33" type="ped_pedestrian">
        <walk from="-556611380#0" to="-210328290#3"/>
    </person>
    <person id="ped45" depart="291.81" type="ped_pedestrian">
        <walk from="-556624764#4" to="556550856"/>
    </person>
    <person id="ped46" depart="298.30" type="ped_pedestrian">
        <walk from="564831530#0" to="215795055#0"/>
    </person>
    <person id="ped47" depart="304.78" type="ped_pedestrian">
        <walk from="-215885158#5" to="127605064#2"/>
    </person>
    <person id="ped48" depart="311.26" type="ped_pedestrian">
        <walk from="998827564#2" to="556419575#15"/>
    </person>
    <person id="ped49" depart="317.75" type="ped_pedestrian">
        <walk from="892949003#3" to="618194901#5"/>
    </person>
    <person id="ped50" depart="324.23" type="ped_pedestrian">
        <walk from="-1050575236#0" to="556826774#0"/>
    </person>
    <person id="ped51" depart="330.72" type="ped_pedestrian">
        <walk from="556826755#2" to="556419575#6"/>
    </person>
    <person id="ped52" depart="337.20" type="ped_pedestrian">
        <walk from="1050575196#1" to="556624739#1"/>
    </person>
    <person id="ped53" depart="343.69" type="ped_pedestrian">
        <walk from="-556624783#0" to="354680398#2"/>
    </person>
    <person id="ped54" depart="350.17" type="ped_pedestrian">
        <walk from="423220347#1" to="80776637#2"/>
    </person>
    <person id="ped55" depart="356.66" type="ped_pedestrian">
        <walk from="67571406#0" to="1050575194#1"/>
    </person>
    <person id="ped56" depart="363.14" type="ped_pedestrian">
        <walk from="549743620#6" to="-740634262#2"/>
    </person>
    <person id="ped57" depart="369.63" type="ped_pedestrian">
        <walk from="717076901#1" to="618194912#3"/>
    </person>
    <person id="ped58" depart="376.11" type="ped_pedestrian">
        <walk from="1050575217#1" to="556624738#1"/>
    </person>
    <person id="ped59" depart="382.60" type="ped_pedestrian">
        <walk from="556550725#1" to="-618194901#6"/>
    </person>
    <person id="ped60" depart="389.08" type="ped_pedestrian">
        <walk from="556826813#0" to="556419575#8"/>
    </person>
    <person id="ped61" depart="395.57" type="ped_pedestrian">
        <walk from="564831522" to="556419575#16"/>
    </person>
    <person id="ped62" depart="402.05" type="ped_pedestrian">
        <walk from="-1003384494#1" to="1050575233#2"/>
    </person>
    <person id="ped63" depart="408.53" type="ped_pedestrian">
        <walk from="-1109277590#0" to="740634262#1"/>
    </person>
    <person id="ped64" depart="415.02" type="ped_pedestrian">
        <walk from="67571406#10" to="564831564#1"/>
    </person>
    <person id="ped65" depart="421.50" type="ped_pedestrian">
        <walk from="1050575224#1" to="-215885158#0"/>
    </person>
    <person id="ped66" depart="427.99" type="ped_pedestrian">
        <walk from="67571406#10" to="80776632#11"/>
    </person>
    <person id="ped67" depart="434.47" type="ped_pedestrian">
        <walk from="-47026383#7" to="549743620#11"/>
    </person>
    <person id="ped68" depart="440.96" type="ped_pedestrian">
        <walk from="-423220347#2" to="556826807#0"/>
    </person>
    <person id="ped69" depart="447.44" type="ped_pedestrian">
        <walk from="556826814#1" to="-556826779#1"/>
    </person>
    <person id="ped70" depart="453.93" type="ped_pedestrian">
        <walk from="500079235#0" to="556419576#6"/>
    </person>
    <person id="ped71" depart="460.41" type="ped_pedestrian">
        <walk from="1050575195#1" to="618194914#0"/>
    </person>
    <person id="ped72" depart="466.90" type="ped_pedestrian">
        <walk from="215795055#3" to="1021241016"/>
    </person>
    <person id="ped73" depart="473.38" type="ped_pedestrian">
        <walk from="556419575#8" to="556826778#0"/>
    </person>
    <person id="ped74" depart="479.87" type="ped_pedestrian">
        <walk from="-80776637#2" to="1050575227#1"/>
    </person>
    <person id="ped75" depart="486.35" type="ped_pedestrian">
        <walk from="998827564#1" to="556624760"/>
    </person>
    <person id="ped76" depart="492.84" type="ped_pedestrian">
        <walk from="354680398#5" to="556419573#3"/>
    </person>
    <person id="ped77" depart="499.32" type="ped_pedestrian">
        <walk from="-556826763#0" to="1021241021#3"/>
    </person>
    <person id="ped78" depart="505.80" type="ped_pedestrian">
        <walk from="1109277588#1" to="556419586#11"/>
    </person>
    <person id="ped79" depart="512.29" type="ped_pedestrian">
        <walk from="1021241021#8" to="1021241020#4"/>
    </person>
    <person id="ped80" depart="518.77" type="ped_pedestrian">
        <walk from="-423220349#0" to="556550857#2"/>
    </person>
    <person id="ped81" depart="525.26" type="ped_pedestrian">
        <walk from="1021241021#7" to="681868492#1"/>
    </person>
    <person id="ped82" depart="531.74" type="ped_pedestrian">
        <walk from="618194901#4" to="-423220349#0"/>
    </person>
    <person id="ped83" depart="538.23" type="ped_pedestrian">
        <walk from="1021241024#1" to="556676147#1"/>
    </person>
    <person id="ped84" depart="544.71" type="ped_pedestrian">
        <walk from="1021241019#0" to="-556826782#1"/>
    </person>
    <person id="ped85" depart="551.20" type="ped_pedestrian">
        <walk from="750363161" to="556419584#0"/>
    </person>
    <person id="ped86" depart="557.68" type="ped_pedestrian">
        <walk from="478555361" to="564831524"/>
    </person>
    <person id="ped87" depart="564.17" type="ped_pedestrian">
        <walk from="564831546" to="-80664630#6"/>
    </person>
    <person id="ped88" depart="570.65" type="ped_pedestrian">
        <walk from="-556624758" to="215885158#9"/>
    </person>
    <person id="ped89" depart="577.14" type="ped_pedestrian">
        <walk from="215795055#3" to="47026382#0"/>
    </person>
    <person id="ped90" depart="583.62" type="ped_pedestrian">
        <walk from="556826777#0" to="556676148#3"/>
    </person>
    <person id="ped91" depart="590.11" type="ped_pedestrian">
        <walk from="998827551#2" to="-556624759#0"/>
    </person>
    <person id="ped92" depart="596.59" type="ped_pedestrian">
        <walk from="146831017#0" to="1109277588#2"/>
    </person>
    <person id="ped93" depart="603.08" type="ped_pedestrian">
        <walk from="618194901#6" to="1038707887#1"/>
    </person>
    <person id="ped94" depart="609.56" type="ped_pedestrian">
        <walk from="-80664630#6" to="354680404#0"/>
    </person>
    <person id="ped95" depart="616.04" type="ped_pedestrian">
        <walk from="215795055#0" to="1050575202"/>
    </person>
    <person id="ped96" depart="622.53" type="ped_pedestrian">
        <walk from="1038707887#4" to="73541769#0"/>
    </person>
    <person id="ped97" depart="629.01" type="ped_pedestrian">
        <walk from="354680401" to="618194901#6"/>
    </person>
    <person id="ped98" depart="635.50" type="ped_pedestrian">
        <walk from="556419576#6" to="-210585066#1"/>
    </person>
    <person id="ped99" depart="641.98" type="ped_pedestrian">
        <walk from="998827570#1" to="574186222#0"/>
    </person>
    <person id="ped100" depart="648.47" type="ped_pedestrian">
        <walk from="892949003#2" to="740306588#0"/>
    </person>
    <person id="ped101" depart="654.95" type="ped_pedestrian">
        <walk from="584441839" to="-73538114#1"/>
    </person>
    <person id="ped102" depart="661.44" type="ped_pedestrian">
        <walk from="549743620#11" to="1021241018"/>
    </person>
    <person id="ped103" depart="667.92" type="ped_pedestrian">
        <walk from="146831016#1" to="-215885158#0"/>
    </person>
    <person id="ped104" depart="674.41" type="ped_pedestrian">
        <walk from="1193028556#1" to="998827552"/>
    </person>
    <person id="ped105" depart="680.89" type="ped_pedestrian">
        <walk from="1050575195#1" to="564831524"/>
    </person>
    <person id="ped106" depart="687.38" type="ped_pedestrian">
        <walk from="423220347#2" to="215795055#3"/>
    </person>
    <person id="ped107" depart="693.86" type="ped_pedestrian">
        <walk from="827754801" to="998827564#1"/>
    </person>
    <person id="ped108" depart="700.35" type="ped_pedestrian">
        <walk from="556419583#1" to="556826773#3"/>
    </person>
    <person id="ped109" depart="706.83" type="ped_pedestrian">
        <walk from="-618194902#2" to="1050575217#0"/>
    </person>
    <person id="ped110" depart="713.31" type="ped_pedestrian">
        <walk from="892949003#1" to="556419584#16"/>
    </person>
    <person id="ped111" depart="719.80" type="ped_pedestrian">
        <walk from="556419576#10" to="556826786#3"/>
    </person>
    <person id="ped112" depart="726.28" type="ped_pedestrian">
        <walk from="-215795055#3" to="556419584#9"/>
    </person>
    <person id="ped113" depart="732.77" type="ped_pedestrian">
        <walk from="549743620#8" to="584441841#1"/>
    </person>
    <person id="ped114" depart="739.25" type="ped_pedestrian">
        <walk from="-618194906" to="835163612#0"/>
    </person>
    <person id="ped115" depart="745.74" type="ped_pedestrian">
        <walk from="-47026378#6" to="-80664630#1"/>
    </person>
    <person id="ped116" depart="752.22" type="ped_pedestrian">
        <walk from="556419586#5" to="556676175#1"/>
    </person>
    <person id="ped117" depart="758.71" type="ped_pedestrian">
        <walk from="1021241023#0" to="-556826762#0"/>
    </person>
    <person id="ped118" depart="765.19" type="ped_pedestrian">
        <walk from="67571406#4" to="1024966104#2"/>
    </person>
    <person id="ped119" depart="771.68" type="ped_pedestrian">
        <walk from="556419586#4" to="556550806#7"/>
    </person>
    <person id="ped120" depart="778.16" type="ped_pedestrian">
        <walk from="215795044#1" to="556419584#8"/>
    </person>
    <person id="ped121" depart="784.65" type="ped_pedestrian">
        <walk from="556419575#10" to="750363161"/>
    </person>
    <person id="ped122" depart="791.13" type="ped_pedestrian">
        <walk from="-885418652" to="556826773#1"/>
    </person>
    <person id="ped123" depart="797.62" type="ped_pedestrian">
        <walk from="1024966100#0" to="146831008#3"/>
    </person>
    <person id="ped124" depart="804.10" type="ped_pedestrian">
        <walk from="556676148#2" to="1050575220#1"/>
    </person>
    <person id="ped125" depart="810.58" type="ped_pedestrian">
        <walk from="1050575230#0" to="556826787#1"/>
    </person>
    <person id="ped126" depart="817.07" type="ped_pedestrian">
        <walk from="-467523294#0" to="467523294#0"/>
    </person>
    <person id="ped127" depart="823.55" type="ped_pedestrian">
        <walk from="998827570#0" to="998827564#2"/>
    </person>
    <person id="ped128" depart="830.04" type="ped_pedestrian">
        <walk from="-467523294#1" to="1021241018"/>
    </person>
    <person id="ped129" depart="836.52" type="ped_pedestrian">
        <walk from="1050575195#1" to="740634263#1"/>
    </person>
    <person id="ped130" depart="843.01" type="ped_pedestrian">
        <walk from="67571406#12" to="67571406#11"/>
    </person>
    <person id="ped131" depart="849.49" type="ped_pedestrian">
        <walk from="11202155#2" to="-618194908"/>
    </person>
    <person id="ped132" depart="855.98" type="ped_pedestrian">
        <walk from="574186221#2" to="556826770#4"/>
    </person>
    <person id="ped133" depart="862.46" type="ped_pedestrian">
        <walk from="556550806#13" to="998827553#1"/>
    </person>
    <person id="ped134" depart="868.95" type="ped_pedestrian">
        <walk from="556624764#3" to="-1050575234#1"/>
    </person>
    <person id="ped135" depart="875.43" type="ped_pedestrian">
        <walk from="564831555#1" to="1050575218#1"/>
    </person>
    <person id="ped136" depart="881.92" type="ped_pedestrian">
        <walk from="556624785#0" to="80664630#1"/>
    </person>
    <person id="ped137" depart="888.40" type="ped_pedestrian">
        <walk from="-556826783#0" to="-556676147#0"/>
    </person>
    <person id="ped138" depart="894.89" type="ped_pedestrian">
        <walk from="-556624764#1" to="556419576#9"/>
    </person>
    <person id="ped139" depart="901.37" type="ped_pedestrian">
        <walk from="1050575198" to="556419599#3"/>
    </person>
    <person id="ped140" depart="907.86" type="ped_pedestrian">
        <walk from="556826773#2" to="-824149883#0"/>
    </person>
    <person id="ped141" depart="914.34" type="ped_pedestrian">
        <walk from="556550874" to="1050575194#1"/>
    </person>
    <person id="ped142" depart="920.82" type="ped_pedestrian">
        <walk from="549743620#14" to="681868492#1"/>
    </person>
    <person id="ped143" depart="927.31" type="ped_pedestrian">
        <walk from="574186224#1" to="-556611381#2"/>
    </person>
    <person id="ped144" depart="933.79" type="ped_pedestrian">
        <walk from="215795055#3" to="1050575201#2"/>
    </person>
    <person id="ped145" depart="940.28" type="ped_pedestrian">
        <walk from="-1021241017#0" to="556826816#0"/>
    </person>
    <person id="ped146" depart="946.76" type="ped_pedestrian">
        <walk from="556611381#2" to="1050575193#2"/>
    </person>
    <person id="ped147" depart="953.25" type="ped_pedestrian">
        <walk from="556826783#2" to="556419576#8"/>
    </person>
    <person id="ped148" depart="959.73" type="ped_pedestrian">
        <walk from="215885158#4" to="-1050575235#1"/>
    </person>
    <person id="ped149" depart="966.22" type="ped_pedestrian">
        <walk from="-47026377" to="67571406#14"/>
    </person>
    <person id="ped150" depart="972.70" type="ped_pedestrian">
        <walk from="681868490" to="556419576#13"/>
    </person>
    <person id="ped151" depart="979.19" type="ped_pedestrian">
        <walk from="574186221#2" to="556419584#7"/>
    </person>
    <person id="ped152" depart="985.67" type="ped_pedestrian">
        <walk from="-618194901#2" to="-556826779#0"/>
    </person>
    <person id="ped153" depart="992.16" type="ped_pedestrian">
        <walk from="1050575224#1" to="681868486#0"/>
    </person>
    <person id="ped154" depart="998.64" type="ped_pedestrian">
        <walk from="564831532" to="618194901#5"/>
    </person>
    <person id="ped155" depart="1005.13" type="ped_pedestrian">
        <walk from="681868486#0" to="1003384494#2"/>
    </person>
    <person id="ped156" depart="1011.61" type="ped_pedestrian">
        <walk from="1038707887#1" to="-556624759#4"/>
    </person>
    <person id="ped157" depart="1018.09" type="ped_pedestrian">
        <walk from="564831523#1" to="67571406#15"/>
    </person>
    <person id="ped158" depart="1024.58" type="ped_pedestrian">
        <walk from="146831019#0" to="556550806#8"/>
    </person>
    <person id="ped159" depart="1031.06" type="ped_pedestrian">
        <walk from="-618194902#2" to="740634262#1"/>
    </person>
    <person id="ped160" depart="1037.55" type="ped_pedestrian">
        <walk from="618194902#3" to="902011006#2"/>
    </person>
    <person id="ped161" depart="1044.03" type="ped_pedestrian">
        <walk from="564831551#0" to="67571406#13"/>
    </person>
    <person id="ped162" depart="1050.52" type="ped_pedestrian">
        <walk from="-11181663#1" to="556826782#0"/>
    </person>
    <person id="ped163" depart="1057.00" type="ped_pedestrian">
        <walk from="1103397426#1" to="740634262#2"/>
    </person>
    <person id="ped164" depart="1063.49" type="ped_pedestrian">
        <walk from="564831540" to="618194902#2"/>
    </person>
    <person id="ped165" depart="1069.97" type="ped_pedestrian">
        <walk from="564831551#0" to="1050575196#1"/>
    </person>
    <person id="ped166" depart="1076.46" type="ped_pedestrian">
        <walk from="564831528" to="-556624764#3"/>
    </person>
    <person id="ped167" depart="1082.94" type="ped_pedestrian">
        <walk from="618194913#1" to="618194901#3"/>
    </person>
    <person id="ped168" depart="1089.43" type="ped_pedestrian">
        <walk from="1021241021#1" to="564831555#0"/>
    </person>
    <person id="ped169" depart="1095.91" type="ped_pedestrian">
        <walk from="47026377" to="1050575222#2"/>
    </person>
    <person id="ped170" depart="1102.40" type="ped_pedestrian">
        <walk from="564831531" to="1021241021#6"/>
    </person>
    <person id="ped171" depart="1108.88" type="ped_pedestrian">
        <walk from="-11177970#1" to="-80776632#0"/>
    </person>
    <person id="ped172" depart="1115.36" type="ped_pedestrian">
        <walk from="1050575234#1" to="618194902#2"/>
    </person>
    <person id="ped173" depart="1121.85" type="ped_pedestrian">
        <walk from="889184723#1" to="1050575203"/>
    </person>
    <person id="ped174" depart="1128.33" type="ped_pedestrian">
        <walk from="556624739#1" to="146831008#7"/>
    </person>
    <person id="ped175" depart="1134.82" type="ped_pedestrian">
        <walk from="946458847#3" to="556419575#6"/>
    </person>
    <person id="ped176" depart="1141.30" type="ped_pedestrian">
        <walk from="80664630#10" to="-556624790"/>
    </person>
    <person id="ped177" depart="1147.79" type="ped_pedestrian">
        <walk from="892949003#3" to="-740634262#2"/>
    </person>
    <person id="ped178" depart="1154.27" type="ped_pedestrian">
        <walk from="835163613#1" to="1050575196#0"/>
    </person>
    <person id="ped179" depart="1160.76" type="ped_pedestrian">
        <walk from="-556624764#3" to="354680398#2"/>
    </person>
    <person id="ped180" depart="1167.24" type="ped_pedestrian">
        <walk from="556826777#0" to="1050575228#1"/>
    </person>
    <person id="ped181" depart="1173.73" type="ped_pedestrian">
        <walk from="556419599#7" to="556419573#13"/>
    </person>
    <person id="ped182" depart="1180.21" type="ped_pedestrian">
        <walk from="146831004" to="556419584#14"/>
    </person>
    <person id="ped183" depart="1186.70" type="ped_pedestrian">
        <walk from="1050575190#1" to="556826771#2"/>
    </person>
    <person id="ped184" depart="1193.18" type="ped_pedestrian">
        <walk from="-1003384494#2" to="73541792"/>
    </person>
    <person id="ped185" depart="1199.67" type="ped_pedestrian">
        <walk from="556419575#8" to="556826773#5"/>
    </person>
    <person id="ped186" depart="1206.15" type="ped_pedestrian">
        <walk from="556826784#1" to="556676148#1"/>
    </person>
    <person id="ped187" depart="1212.63" type="ped_pedestrian">
        <walk from="11198919#2" to="-423220349#0"/>
    </person>
    <person id="ped188" depart="1219.12" type="ped_pedestrian">
        <walk from="556624789#1" to="1050575235#2"/>
    </person>
    <person id="ped189" depart="1225.60" type="ped_pedestrian">
        <walk from="1050575228#1" to="584441839"/>
    </person>
    <person id="ped190" depart="1232.09" type="ped_pedestrian">
        <walk from="556826773#5" to="1050575220#1"/>
    </person>
    <person id="ped191" depart="1238.57" type="ped_pedestrian">
        <walk from="1050575225#1" to="146831019#1"/>
    </person>
    <person id="ped192" depart="1245.06" type="ped_pedestrian">
        <walk from="146831017#0" to="1050575216#1"/>
    </person>
    <person id="ped193" depart="1251.54" type="ped_pedestrian">
        <walk from="-556826779#0" to="215795044#2"/>
    </person>
    <person id="ped194" depart="1258.03" type="ped_pedestrian">
        <walk from="80664630#11" to="556826753#1"/>
    </person>
    <person id="ped195" depart="1264.51" type="ped_pedestrian">
        <walk from="681868489#1" to="556550806#3"/>
    </person>
    <person id="ped196" depart="1271.00" type="ped_pedestrian">
        <walk from="1050575220#2" to="556419576#15"/>
    </person>
    <person id="ped197" depart="1277.48" type="ped_pedestrian">
        <walk from="-1003384494#1" to="1050575208"/>
    </person>
    <person id="ped198" depart="1283.97" type="ped_pedestrian">
        <walk from="215885158#7" to="556419584#2"/>
    </person>
    <person id="ped199" depart="1290.45" type="ped_pedestrian">
        <walk from="556624764#3" to="47026378#5"/>
    </person>
    <person id="ped200" depart="1296.94" type="ped_pedestrian">
        <walk from="354680400" to="1021241018"/>
    </person>
    <person id="ped201" depart="1303.42" type="ped_pedestrian">
        <walk from="478555364#0" to="681868487"/>
    </person>
    <person id="ped202" depart="1309.91" type="ped_pedestrian">
        <walk from="564831532" to="-73540498#1"/>
    </person>
    <person id="ped203" depart="1316.39" type="ped_pedestrian">
        <walk from="-47026383#6" to="556419573#17"/>
    </person>
    <person id="ped204" depart="1322.87" type="ped_pedestrian">
        <walk from="556550871#1" to="1109277585#1"/>
    </person>
    <person id="ped205" depart="1329.36" type="ped_pedestrian">
        <walk from="564831555#2" to="556826787#0"/>
    </person>
    <person id="ped206" depart="1335.84" type="ped_pedestrian">
        <walk from="556676148#3" to="1021241021#3"/>
    </person>
    <person id="ped207" depart="1342.33" type="ped_pedestrian">
        <walk from="-80776632#8" to="-11181663#1"/>
    </person>
    <person id="ped208" depart="1348.81" type="ped_pedestrian">
        <walk from="1024966104#1" to="500079235#0"/>
    </person>
    <person id="ped209" depart="1355.30" type="ped_pedestrian">
        <walk from="584441840#0" to="-467523294#0"/>
    </person>
    <person id="ped210" depart="1361.78" type="ped_pedestrian">
        <walk from="210585066#1" to="556550857#1"/>
    </person>
    <person id="ped211" depart="1368.27" type="ped_pedestrian">
        <walk from="-80776632#11" to="556826762#0"/>
    </person>
    <person id="ped212" depart="1374.75" type="ped_pedestrian">
        <walk from="549743620#19" to="1024966104#0"/>
    </person>
    <person id="ped213" depart="1381.24" type="ped_pedestrian">
        <walk from="556624764#5" to="-1038707887#1"/>
    </person>
    <person id="ped214" depart="1387.72" type="ped_pedestrian">
        <walk from="556826787#0" to="556826815#1"/>
    </person>
    <person id="ped215" depart="1394.21" type="ped_pedestrian">
        <walk from="-556624764#1" to="215885158#13"/>
    </person>
    <person id="ped216" depart="1400.69" type="ped_pedestrian">
        <walk from="-740306588#1" to="827754821"/>
    </person>
    <person id="ped217" depart="1407.18" type="ped_pedestrian">
        <walk from="556419573#3" to="-210585066#1"/>
    </person>
    <person id="ped218" depart="1413.66" type="ped_pedestrian">
        <walk from="1038707887#1" to="584441839"/>
    </person>
    <person id="ped219" depart="1420.14" type="ped_pedestrian">
        <walk from="423220349#1" to="564831540"/>
    </person>
    <person id="ped220" depart="1426.63" type="ped_pedestrian">
        <walk from="556676147#0" to="998827562#0"/>
    </person>
    <person id="ped221" depart="1433.11" type="ped_pedestrian">
        <walk from="556419586#5" to="80776632#3"/>
    </person>
    <person id="ped222" depart="1439.60" type="ped_pedestrian">
        <walk from="67571406#5" to="556550806#13"/>
    </person>
    <person id="ped223" depart="1446.08" type="ped_pedestrian">
        <walk from="556826773#5" to="549743620#9"/>
    </person>
    <person id="ped224" depart="1452.57" type="ped_pedestrian">
        <walk from="564831562" to="556419576#15"/>
    </person>
    <person id="ped225" depart="1459.05" type="ped_pedestrian">
        <walk from="67571407" to="556826786#0"/>
    </person>
    <person id="ped226" depart="1465.54" type="ped_pedestrian">
        <walk from="478555364#1" to="1050575191#1"/>
    </person>
    <person id="ped227" depart="1472.02" type="ped_pedestrian">
        <walk from="1024966104#3" to="556611381#2"/>
    </person>
    <person id="ped228" depart="1478.51" type="ped_pedestrian">
        <walk from="556826814#0" to="556419575#0"/>
    </person>
    <person id="ped229" depart="1484.99" type="ped_pedestrian">
        <walk from="556550855#2" to="1050575200"/>
    </person>