<?xml version="1.0" encoding="UTF-8"?>

<!-- generated on 2023-10-11 17:22:15 by Eclipse SUMO duarouter Version 1.12.0
<configuration xmlns:xsi="http://www.w3.org/2001/XMLSchema-instance" xsi:noNamespaceSchemaLocation="http://sumo.dlr.de/xsd/duarouterConfiguration.xsd">

    <input>
        <net-file value="/tmp/tmpuxf1e92e/osm.net.xml"/>
        <route-files value="/tmp/tmpuxf1e92e/osm.bicycle.trips.xml"/>
    </input>

    <output>
        <output-file value="routes.rou.xml"/>
        <alternatives-output value="routes.rou.alt.xml"/>
    </output>

    <time>
        <begin value="0"/>
        <end value="3600"/>
    </time>

    <report>
        <no-warnings value="true"/>
        <ignore-errors value="true"/>
        <no-step-log value="true"/>
    </report>

</configuration>
-->

<routes xmlns:xsi="http://www.w3.org/2001/XMLSchema-instance" xsi:noNamespaceSchemaLocation="http://sumo.dlr.de/xsd/routes_file.xsd">
    <vType id="bike_bicycle" vClass="bicycle"/>
    <vehicle id="bike0" type="bike_bicycle" depart="0.00" departLane="best">
        <route edges="47026378#4 47026378#5 -47026378#5 -47026378#4 -47026378#3 1103397426#1 556624764#0 556624764#1 556624764#3 556624764#4 556624764#5 -1003384494#2 -1003384494#1 -1109277589#0 -1109277588#2 -1109277588#1 -1109277586#1"/>
    </vehicle>
    <vehicle id="bike1" type="bike_bicycle" depart="14.25" departLane="best" departSpeed="max">
        <route edges="-556826806#1 80664630#10 80664630#11 1109277583#1 1109277585#1 1109277588#1 1109277588#2 1109277589#0 1003384494#1 1003384494#2 -556624764#5 556624764#5 -1003384494#2 -1003384494#1 -1109277589#0 -556624783#1 -556624783#0"/>
    </vehicle>
    <vehicle id="bike2" type="bike_bicycle" depart="28.49" departLane="best" departSpeed="max">
        <route edges="556826758#0 -11198919#2 -11198919#1 -11198919#0 -210585088#1 -11176415#4 -215885158#0 -215795044#1 -47026383#7 -47026383#6 556826775#0 556826775#1 -1038707887#1 1109277588#1 1109277588#2 1109277589#0 1003384494#1 1003384494#2 -556624764#5 -556624764#4 -556624764#3 -556624764#1 556624764#1"/>
    </vehicle>
    <vehicle id="bike3" type="bike_bicycle" depart="42.74" departLane="best" departSpeed="max">
        <route edges="717076902 717076901#1 717076904 -684600452#2 -717076905#1 -51064594#3 -51064594#1 -1109277590#0 -1003384494#2 -1003384494#1 -1160435050#6 -1160435050#5 -1160435050#4"/>
    </vehicle>
    <vehicle id="bike4" type="bike_bicycle" depart="56.99" departLane="best">
        <route edges="-80776632#8 80776632#8 80776632#9 -215885158#7 -215885158#5 -215885158#4 -215885158#3 -215885158#0 -215795044#1 -47026383#7 -47026383#6 556826775#0 556826775#1 -1038707887#1 1109277588#1 1109277588#2 1109277589#0 1003384494#1 1003384494#2 -556624764#5 556624764#5 -1003384494#2 -1003384494#1 -1109277589#0 -1109277588#2 -1109277588#1"/>
    </vehicle>
    <vehicle id="bike5" type="bike_bicycle" depart="71.23" departLane="best">
        <route edges="-556826779#0 -47026383#7 -47026383#6 556826775#0 556826775#1 -1038707887#1 1109277588#1 1109277588#2 1109277589#0 1003384494#1 1003384494#2 -556624764#5 -556624764#4 -556624764#3 -556624764#1 -556624764#0 1103397427#0 47026378#3 47026378#4 47026378#5 11183171#0 11183171#1 11183171#2"/>
    </vehicle>
    <vehicle id="bike6" type="bike_bicycle" depart="85.48" departLane="best">
        <route edges="-1109277587#0 47026383#1 556826775#0 556826775#1 556624759#0 556624759#1 -556624759#1 -556624759#0"/>
    </vehicle>
    <vehicle id="bike7" type="bike_bicycle" depart="99.73" departLane="best">
        <route edges="47026383#1 556826783#0 -556826783#0 -47026383#1 1109277585#1 1109277588#1 1109277588#2 1109277589#0 1003384494#1 1003384494#2 1109277590#0 51064594#1 51064594#3 717076905#1 1146958643#1"/>
    </vehicle>
    <vehicle id="bike8" type="bike_bicycle" depart="113.97" departLane="best">
        <route edges="-556826779#1 -556826779#0 215795044#1 215795044#2 215885158#3 215885158#4 215885158#5 215885158#7 215885158#9 11192348#8 -423220347#2 -423220347#1 -618194914#1 215795055#1"/>
    </vehicle>
    <vehicle id="bike9" type="bike_bicycle" depart="128.22" departLane="best">
        <route edges="618194901#2 -618194901#2 -618194901#1 -73541792 -47026378#6 -47026378#5 -47026378#4 -47026378#3 1103397426#1 556624764#0 -1021241016"/>
    </vehicle>
    <vehicle id="bike10" type="bike_bicycle" depart="142.47" departLane="best">
        <route edges="556826807#1 80664630#9 80664630#10 80664630#11 1109277583#1 1109277585#1 1109277588#1 1109277588#2 1109277589#0 1003384494#1 1003384494#2 -556624764#5 556624764#5 556624791#1"/>
    </vehicle>
    <vehicle id="bike11" type="bike_bicycle" depart="156.71" departLane="best">
        <route edges="-73538114#1 -73538114#0 -423220347#2 -423220347#1 -423220347#0 -73540498#2 -73540498#1 -73540498#0 -73541792 -47026378#6 -47026378#5 -47026378#4 -47026378#3 -47026378#1"/>
    </vehicle>
    <vehicle id="bike12" type="bike_bicycle" depart="170.96" departLane="best" departSpeed="max">
        <route edges="80776632#0 80776632#1 80776632#3 80776632#4 -80664630#1 11192348#5 11192348#8 -423220347#2 -423220347#1 -423220347#0 -73540498#2 -73540498#1 -73540498#0 -73541792 -47026378#6 -47026378#5 -740634262#2 740634263#0 -684600452#7 -684600452#6"/>
    </vehicle>
    <vehicle id="bike13" type="bike_bicycle" depart="185.21" departLane="best" departSpeed="max">
        <route edges="-127605064#6 -127605064#5 -127605064#2"/>
    </vehicle>
    <vehicle id="bike14" type="bike_bicycle" depart="199.45" departLane="best">
        <route edges="681868492#1 687411650 684999227 681868487 681868486#0 681868486#1 80776632#8 80776632#9 -215885158#7 -215885158#5 -215885158#4 -215885158#3 215885158#3 215885158#4"/>
    </vehicle>
    <vehicle id="bike15" type="bike_bicycle" depart="213.70" departLane="best">
        <route edges="618194901#1 -618194901#1 73540498#0 73540498#1 73540498#2 423220347#0 423220347#1 423220347#2 -11192348#8 -215885158#9 -215885158#7 -215885158#5 -215885158#4 -215885158#3 -215885158#0 -215795044#1 -47026383#7 -47026383#6 556826780#0 556826780#1 556826781#0"/>
    </vehicle>
    <vehicle id="bike16" type="bike_bicycle" depart="227.95" departLane="best">
        <route edges="11198919#1 11198919#2 11198919#5 80776632#3 80776632#4 80776632#8 80776632#9 80776632#12 80776637#1 824149882#1"/>
    </vehicle>
    <vehicle id="bike17" type="bike_bicycle" depart="242.19" departLane="best" departSpeed="max">
        <route edges="-745690295#3 -745690297#1 -127605064#1 80776632#3 80776632#4 80776632#8 80776632#9 -215885158#7 -215885158#5 -215885158#4 -215885158#3 -215885158#0 -215795044#1 -47026383#7 -47026383#6 1173591674#0"/>
    </vehicle>
    <vehicle id="bike18" type="bike_bicycle" depart="256.44" departLane="best">
        <route edges="67564892#0 80776637#1 80776637#2 80776637#3 -423220347#2 -423220347#1 -618194914#1 -215795055#0 -423220349#1 -423220349#0 423220349#0 423220349#1"/>
    </vehicle>
    <vehicle id="bike19" type="bike_bicycle" depart="270.68" departLane="best">
        <route edges="684600452#3 834856439#1 -834856439#1 -684600452#3 -684600452#2 -717076905#1 -51064594#3 -51064594#1 -1109277590#0 -1003384494#2 -1003384494#1 -1109277589#0 -1109277588#2 -1109277588#1 1038707887#1 -556826775#1 -556826775#0 47026383#6 47026383#7 215795044#1 215795044#2 11176415#4 210585088#1"/>
    </vehicle>
    <vehicle id="bike21" type="bike_bicycle" depart="299.18" departLane="best" departSpeed="max">
        <route edges="-556826780#1 556826780#1 556826781#0 -80664630#10 -80664630#9 -556826807#1 -556826805#0"/>
    </vehicle>
    <vehicle id="bike22" type="bike_bicycle" depart="313.42" departLane="best">
        <route edges="-11198919#5 -11198919#2 -11198919#1 -11198919#0 -210585088#1 -11176415#4 -215885158#0 -215795044#1 -47026383#7 -47026383#6 556826775#0 556826775#1 -1038707887#1 1109277588#1 1109277588#2 1109277589#0 1003384494#1 1003384494#2 -556624764#5 556624764#5 -1003384494#2 -1003384494#1 -1160435050#6 -1160435050#5 -556624785#0"/>
    </vehicle>
    <vehicle id="bike24" type="bike_bicycle" depart="341.92" departLane="best">
        <route edges="47026378#1 47026378#3 47026378#4 47026378#5 47026378#6 73541792 -73541792"/>
    </vehicle>
    <vehicle id="bike25" type="bike_bicycle" depart="356.16" departLane="best">
        <route edges="-740634263#0 -740634262#1 -11193557#0 -47026378#3 1103397426#1 556624764#0 556624764#1 556624764#3 556624764#4 556624764#5 -1003384494#2 -1003384494#1 -1109277589#0 -1109277588#2 -1109277588#1 1038707887#1 -556624759#5 -556624759#4"/>
    </vehicle>
    <vehicle id="bike26" type="bike_bicycle" depart="370.41" departLane="best" departSpeed="max">
        <route edges="-556826795#1 -80664630#6 -80664630#4 -80664630#1 11192348#5 11192348#8 -423220347#2 -423220347#1 -618194914#1 215795055#1 761391872"/>
    </vehicle>
    <vehicle id="bike27" type="bike_bicycle" depart="384.66" departLane="best" departSpeed="max">
        <route edges="47026382#0 11192348#5 -215885158#9 -215885158#7 -902562650 -902562649 215885158#7"/>
    </vehicle>
    <vehicle id="bike28" type="bike_bicycle" depart="398.90" departLane="best" departSpeed="max">
        <route edges="-556624738#1 215671208#1 -1109277590#0 -1003384494#2 -1003384494#1 -1109277589#0 -1109277588#2 -1109277588#1 1038707887#1 -556826775#1 -556826775#0 556826780#0 556826780#1"/>
    </vehicle>
    <vehicle id="bike29" type="bike_bicycle" depart="413.15" departLane="best">
        <route edges="-47026383#7 -556826779#1 -556826779#0 215795044#1 215795044#2 215885158#3 215885158#4 215885158#5 215885158#7 -80776632#9 -80776632#8 -80776632#4 -80776632#3 -80776632#1 745690296#1 -745690295#1"/>
    </vehicle>
    <vehicle id="bike30" type="bike_bicycle" depart="427.40" departLane="best">
        <route edges="892949003#3 -684600452#9 -11193557#2 -11193557#0 -47026378#3 -47026378#1 51064594#1"/>
    </vehicle>
    <vehicle id="bike31" type="bike_bicycle" depart="441.64" departLane="best" departSpeed="max">
        <route edges="1160435050#0 1160435050#5 1160435050#6 -1109277589#0 -1109277588#2 11202155#0 11202155#1 11202155#2 556624782#0"/>
    </vehicle>
    <vehicle id="bike32" type="bike_bicycle" depart="455.89" departLane="best">
        <route edges="681868489#1 684999227 681868487 681868486#0 681868486#1 80664630#4 80664630#6 80664630#7 80664630#9 556826806#1"/>
    </vehicle>
    <vehicle id="bike33" type="bike_bicycle" depart="470.14" departLane="best">
        <route edges="-556826782#0 -556826783#2 -556826783#1 -556826783#0 -47026383#1 1109277585#1 1109277588#1 1109277588#2 1109277589#0 1003384494#1 1003384494#2 -556624764#5 556624764#5 -1003384494#2 -1003384494#1 -1109277589#0 -1109277588#2"/>
    </vehicle>
    <vehicle id="bike34" type="bike_bicycle" depart="484.38" departLane="best">
        <route edges="-684600452#0 684600452#0 -717076905#1 -51064594#3 -51064594#1 -1109277590#0 -1003384494#2 -1003384494#1 -1109277589#0 -1109277588#2 -1109277588#1 -1109277587#0 47026383#1 556826783#0 556826783#1 -556826782#0"/>
    </vehicle>
    <vehicle id="bike35" type="bike_bicycle" depart="498.63" departLane="best" departSpeed="max">
        <route edges="-556826756#1 -11198919#1 -11198919#0 -210585088#1 80664630#6 80664630#7 80664630#9 80664630#10 80664630#11"/>
    </vehicle>
    <vehicle id="bike36" type="bike_bicycle" depart="512.88" departLane="best">
        <route edges="687411650 684999227 681868487 681868486#0 681868486#1 80776632#8 80776632#9 215885158#9 11192348#8 -423220347#2 -423220347#1 -618194914#1"/>
    </vehicle>
    <vehicle id="bike37" type="bike_bicycle" depart="527.12" departLane="best">
        <route edges="47026383#7 -556826778#0 556826778#0 -47026383#7 -47026383#6 -47026383#1 -1109277584#0 -80664630#11"/>
    </vehicle>
    <vehicle id="bike38" type="bike_bicycle" depart="541.37" departLane="best">
        <route edges="740306589#0 -11193557#0 47026378#4 47026378#5 47026378#6 73541792 73540498#0 73540498#1 73540498#2 423220347#0 423220347#1 423220347#2 -11192348#8 -11192348#5 -11192348#3 -1050575236#0 1050575235#2"/>
    </vehicle>
    <vehicle id="bike40" type="bike_bicycle" depart="569.86" departLane="best">
        <route edges="1160435050#6 -1109277589#0 -1109277588#2 -1109277588#1 1038707887#1 -556826775#1 -556826775#0 47026383#6 -556826779#1"/>
    </vehicle>
    <vehicle id="bike41" type="bike_bicycle" depart="584.11" departLane="best" departSpeed="max">
        <route edges="215671208#0 215671208#1 51064594#1 51064594#3 717076905#1 684600452#2 684600452#3 684600452#4 684600452#5 740131492#1"/>
    </vehicle>
    <vehicle id="bike42" type="bike_bicycle" depart="598.36" departLane="best">
        <route edges="-80664630#10 556826806#1 -556826806#1 80664630#10 80664630#11 1109277583#1 1109277585#1 1109277588#1 1109277588#2 1109277589#0 1003384494#1 1003384494#2 -556624764#5 -556624764#4"/>
    </vehicle>
    <vehicle id="bike43" type="bike_bicycle" depart="612.60" departLane="best">
        <route edges="902562648#2 902562650 215885158#7 215885158#9 -11192348#5 -11192348#3 11192348#3"/>
    </vehicle>
    <vehicle id="bike44" type="bike_bicycle" depart="626.85" departLane="best">
        <route edges="-127605064#5 11192348#3 11192348#5 11192348#8 -423220347#2 -423220347#1 -423220347#0 -73540498#2 -73540498#1 -73540498#0 -73541792 -11177970#2 -11177970#1"/>
    </vehicle>
    <vehicle id="bike45" type="bike_bicycle" depart="641.10" departLane="best">
        <route edges="-215795055#1 -215795055#0 -73540498#2 -73540498#1 -73540498#0 -73541792 -47026378#6 -47026378#5 -47026378#4 47026378#4"/>
    </vehicle>
    <vehicle id="bike47" type="bike_bicycle" depart="669.59" departLane="best">
        <route edges="-11193557#0 47026378#4 47026378#5 47026378#6 73541792 73540498#0 73540498#1 73540498#2 423220347#0 423220347#1 423220347#2 -11192348#8 -11192348#5 -11192348#3 -127605064#2 745690297#1 -745690295#2"/>
    </vehicle>
    <vehicle id="bike48" type="bike_bicycle" depart="683.84" departLane="best">
        <route edges="902562648#2 902562650 -215885158#5 -215885158#4 -215885158#3 11176415#4 210585088#1 11198919#0 11198919#1"/>
    </vehicle>
    <vehicle id="bike49" type="bike_bicycle" depart="698.08" departLane="best">
        <route edges="80776632#8 681868489#1 684999227"/>
    </vehicle>
    <vehicle id="bike50" type="bike_bicycle" depart="712.33" departLane="best">
        <route edges="-1038707887#4 -556826775#1 -556826775#0 47026383#6 47026383#7 556826779#0"/>
    </vehicle>
    <vehicle id="bike51" type="bike_bicycle" depart="726.58" departLane="best">
        <route edges="556624759#1 -556624759#1 -556624759#0 -1038707887#1 1109277588#1 1109277588#2 1109277589#0 1003384494#1 1003384494#2 -556624764#5 556624764#5 -1003384494#2 -1003384494#1 -1109277589#0 -1109277588#2 11202155#0"/>
    </vehicle>
    <vehicle id="bike52" type="bike_bicycle" depart="740.82" departLane="best" departSpeed="max">
        <route edges="-556826795#1 80664630#7 80664630#9 80664630#10 80664630#11 1109277583#1 1109277585#1 1109277588#1 1109277588#2 1109277589#0 1003384494#1 1003384494#2 1109277590#0 51064594#1"/>
    </vehicle>
    <vehicle id="bike53" type="bike_bicycle" depart="755.07" departLane="best">
        <route edges="-215795055#1 -215795055#0 423220347#0 423220347#1 423220347#2 -11192348#8 -215885158#9 -215885158#7 -902562650 -902562649"/>
    </vehicle>
    <vehicle id="bike54" type="bike_bicycle" depart="769.31" departLane="best">
        <route edges="1021241017#0 556624764#3 556624764#4 556624764#5 -1003384494#2 -1003384494#1 -1109277589#0 -1109277588#2 -1109277588#1 1038707887#1 -556826775#1 -556826775#0 47026383#6 47026383#7 215795044#1 215795044#2 215885158#3 215885158#4 215885158#5 215885158#7 -80776632#9 -80776632#8 -80776632#4 -80776632#3 -80776632#1 745690296#1 -745690296#1 80776632#1"/>
    </vehicle>
    <vehicle id="bike55" type="bike_bicycle" depart="783.56" departLane="best">
        <route edges="687411650 684999227 681868487 681868486#0 681868486#1 80776632#8 80776632#9 -215885158#7 -215885158#5 -215885158#4 -215885158#3 -215885158#0 -215795044#1 -47026383#7 -556826779#1"/>
    </vehicle>
    <vehicle id="bike56" type="bike_bicycle" depart="797.81" departLane="best">
        <route edges="11179420#0 11179420#1 67564892#0 -1038707887#7 -1038707887#4 -1038707887#1 1109277588#1 1109277588#2 1109277589#0 1003384494#1 1003384494#2 1109277590#0 51064594#1 717076898 717076900 -51064594#1"/>
    </vehicle>
    <vehicle id="bike57" type="bike_bicycle" depart="812.05" departLane="best">
        <route edges="740306588#1 740306589#0 -11193557#0 -47026378#3 -47026378#1 51064594#1 717076898 717076901#0 717076901#1"/>
    </vehicle>
    <vehicle id="bike58" type="bike_bicycle" depart="826.30" departLane="best">
        <route edges="-618194914#1 618194914#1 423220347#1 423220347#2 -11192348#8 -215885158#9 -215885158#7 -215885158#5 -215885158#4 -215885158#3 -215885158#0 -215795044#1 556826779#0 556826779#1 47026383#7"/>
    </vehicle>
    <vehicle id="bike59" type="bike_bicycle" depart="840.55" departLane="best">
        <route edges="215885158#5 215885158#7 -80776632#9 -80776632#8 80664630#4 210585088#1 -467523294#1"/>
    </vehicle>
    <vehicle id="bike60" type="bike_bicycle" depart="854.79" departLane="best" departSpeed="max">
        <route edges="556826778#0 -47026383#7 -47026383#6 556826775#0 556826775#1 -1038707887#1 1109277588#1 1109277588#2 1109277589#0 1003384494#1 1003384494#2 -556624764#5 556624764#5 -1003384494#2 -1003384494#1 -1109277589#0 -1109277588#2 11202155#0 11202155#1 11202155#2"/>
    </vehicle>
    <vehicle id="bike61" type="bike_bicycle" depart="869.04" departLane="best">
        <route edges="556826783#0 -556826783#0 556826780#0 556826780#1 556826781#0 -80664630#10 -80664630#9 -80664630#7 -80664630#6 210585088#1 11198919#0 11198919#1"/>
    </vehicle>
    <vehicle id="bike62" type="bike_bicycle" depart="883.29" departLane="best">
        <route edges="-1003384494#1 -1109277589#0 -556624783#1 556624783#1 1109277589#0 1003384494#1 1003384494#2 1109277590#0 51064594#1 51064594#3 717076905#1 684600452#2 684600452#3 684600452#4 684600452#5 684600452#6 684600452#7 684600452#9 684600452#10 684600452#11 -684600452#11 -684600452#10"/>
    </vehicle>
    <vehicle id="bike63" type="bike_bicycle" depart="897.53" departLane="best" departSpeed="max">
        <route edges="-1050575235#2 1050575236#0 11192348#3 11192348#5 11192348#8 -423220347#2 -423220347#1 -423220347#0 -73540498#2 -73540498#1 -73540498#0 618194901#1 750363162"/>
    </vehicle>
    <vehicle id="bike64" type="bike_bicycle" depart="911.78" departLane="best">
        <route edges="717076898 717076900 -51064594#1 -1109277590#0 -1003384494#2 -1003384494#1 -1109277589#0 -1109277588#2 -1109277588#1 1038707887#1 -556826775#1 -556826775#0 47026383#6 47026383#7 215795044#1 215795044#2 215885158#3 215885158#4 215885158#5 215885158#7 -80776632#9 681868489#1"/>
    </vehicle>
    <vehicle id="bike65" type="bike_bicycle" depart="926.03" departLane="best">
        <route edges="-67567288#0 11177970#1 11177970#2 73541792 73540498#0 73540498#1 73540498#2 423220347#0 423220347#1 423220347#2 -11192348#8 -11192348#5 -11192348#3 -11192348#0"/>
    </vehicle>
    <vehicle id="bike66" type="bike_bicycle" depart="940.27" departLane="best">
        <route edges="717076898 717076900 -51064594#1 -1109277590#0 -1003384494#2 -1003384494#1 -1109277589#0 -1109277588#2 -1109277588#1 1038707887#1 -556826775#1 -556826775#0 47026383#6 47026383#7 215795044#1 215795044#2 11176415#4 80664630#6"/>
    </vehicle>
    <vehicle id="bike67" type="bike_bicycle" depart="954.52" departLane="best">
        <route edges="-127605064#1 127605064#1 127605064#2 11192348#3 11192348#5 11192348#8 -423220347#2 -423220347#1 -423220347#0 -73540498#2 -73540498#1 -73540498#0 -73541792 -11177970#2 -11177970#1 11177970#1"/>
    </vehicle>
    <vehicle id="bike69" type="bike_bicycle" depart="983.01" departLane="best">
        <route edges="556826779#1 -556826779#1 -556826779#0 215795044#1 215795044#2 215885158#3 215885158#4 681868493#1 -215885158#5 -215885158#4"/>
    </vehicle>
    <vehicle id="bike70" type="bike_bicycle" depart="997.26" departLane="best" departSpeed="max">
        <route edges="1109277586#0 1109277588#1 1109277588#2 1109277589#0 1003384494#1 1003384494#2 -556624764#5 556624764#5 -1003384494#2 -1003384494#1 -1160435050#6 -1160435050#5 -556624785#0 556624785#0 1160435050#5 1160435050#6"/>
    </vehicle>
    <vehicle id="bike72" type="bike_bicycle" depart="1025.75" departLane="best">
        <route edges="-80776632#8 80776632#8 80776632#9 -215885158#7 -215885158#5 -215885158#4 -215885158#3 -215885158#0 -215795044#1 -47026383#7 -47026383#6 556826775#0 556826775#1 -1038707887#1 1109277588#1 1109277588#2 1109277589#0 1003384494#1 1003384494#2 -556624764#5 -556624764#4 -556624764#3 -556624764#1 -556624764#0"/>
    </vehicle>
    <vehicle id="bike73" type="bike_bicycle" depart="1040.00" departLane="best">
        <route edges="11198919#2 -556826757#0 556826757#0 -11198919#2 -11198919#1 -11198919#0 -210585088#1 -11176415#4 -215885158#0 -215795044#1 -47026383#7 -47026383#6 556826780#0 556826780#1 556826781#0"/>
    </vehicle>
    <vehicle id="bike74" type="bike_bicycle" depart="1054.25" departLane="best">
        <route edges="-556624764#3 -556624764#1 -556624764#0 1103397427#0 47026378#3 47026378#4 47026378#5 47026378#6 -11177970#2 618194902#1 -618194902#1"/>
    </vehicle>
    <vehicle id="bike75" type="bike_bicycle" depart="1068.49" departLane="best">
        <route edges="892949004#1 892949003#2 892949003#3 -684600452#9 -684600452#7 -684600452#6 -684600452#5 -684600452#4 -684600452#3 -684600452#2 -717076905#1 -51064594#3 -51064594#1 -215671208#1 556624738#1"/>
    </vehicle>
    <vehicle id="bike76" type="bike_bicycle" depart="1082.74" departLane="best" departSpeed="max">
        <route edges="-834856439#1 684600452#4 684600452#5 684600452#6 740306588#1 740306589#0 11193557#2"/>
    </vehicle>
    <vehicle id="bike77" type="bike_bicycle" depart="1096.99" departLane="best" departSpeed="max">
        <route edges="-215885158#13 -215885158#12 -215885158#9 -215885158#7 -215885158#5 -215885158#4 -215885158#3 -215885158#0 -215795044#1 -47026383#7 -47026383#6 556826775#0 556826775#1 -1038707887#1 1109277588#1 1109277588#2 1109277589#0 1003384494#1 1003384494#2 -556624764#5 556624764#5 -1003384494#2 -1003384494#1 -1109277589#0 -556624783#1 -556624783#0"/>
    </vehicle>
    <vehicle id="bike78" type="bike_bicycle" depart="1111.23" departLane="best">
        <route edges="-73538114#0 -423220347#2 -423220347#1 -618194914#1 215795055#1"/>
    </vehicle>
    <vehicle id="bike79" type="bike_bicycle" depart="1125.48" departLane="best">
        <route edges="-556826782#0 -556826783#2 -556826783#1 -556826783#0 -47026383#1 1109277585#1 1109277588#1 1109277588#2 1109277589#0 1003384494#1 1003384494#2 -556624764#5 -556624764#4"/>
    </vehicle>
    <vehicle id="bike80" type="bike_bicycle" depart="1139.73" departLane="best">
        <route edges="-11196509#2 -556826805#1 556826807#1 80664630#9 80664630#10 80664630#11 1109277583#1 1109277585#1 1109277588#1 1109277588#2 1109277589#0 1003384494#1 1003384494#2 -556624764#5 -556624764#4 -556624764#3 -556624764#1 -556624764#0 1103397427#0 47026378#3 47026378#4 47026378#5 47026378#6"/>
    </vehicle>
    <vehicle id="bike81" type="bike_bicycle" depart="1153.97" departLane="best">
        <route edges="-556826782#0 -556826783#2 -556826783#1 -556826783#0 -47026383#1 1109277585#1 1109277588#1 1109277588#2 1109277589#0 1003384494#1 1003384494#2 -556624764#5 -556624764#4 -556624764#3 -556624764#1 -556624764#0 1103397427#0 47026378#3 11193557#0 740634262#1"/>
    </vehicle>
    <vehicle id="bike82" type="bike_bicycle" depart="1168.22" departLane="best">
        <route edges="684600452#2 -717076904 717076904 -684600452#2 -717076905#1 -51064594#3 -51064594#1 -1109277590#0 -1003384494#2 -1003384494#1 -1109277589#0 -1109277588#2 -1109277588#1 1038707887#1 -556826775#1 -556826775#0 556826780#0 556826780#1 556826781#0 -80664630#10 -80664630#9 -556826807#1 556826805#1 -11196509#0"/>
    </vehicle>
    <vehicle id="bike83" type="bike_bicycle" depart="1182.47" departLane="best">
        <route edges="-556826783#2 -556826783#1 -556826783#0 -47026383#1 1109277585#1 1109277588#1 1109277588#2 1109277589#0 1003384494#1 1003384494#2 -556624764#5 556624761"/>
    </vehicle>
    <vehicle id="bike84" type="bike_bicycle" depart="1196.71" departLane="best">
        <route edges="-556826775#0 47026383#6 47026383#7 215795044#1 215795044#2 215885158#3 215885158#4 215885158#5 215885158#7 -215885158#7"/>
    </vehicle>
    <vehicle id="bike86" type="bike_bicycle" depart="1225.21" departLane="best">
        <route edges="1109277585#1 1109277588#1 1109277588#2 1109277589#0 1003384494#1 1003384494#2 -556624764#5 -556624764#4 -556624764#3 -556624764#1 -556624764#0 1103397427#0 47026378#3 47026378#4 47026378#5 47026378#6 73541792 618194901#1 618194901#2"/>
    </vehicle>
    <vehicle id="bike87" type="bike_bicycle" depart="1239.45" departLane="best">
        <route edges="618194901#1 -618194901#1 -73541792 -47026378#6 -47026378#5 -47026378#4 -47026378#3 1103397426#1 556624764#0 556624764#1 556624764#3 556624764#4 556624764#5 -1003384494#2 -556624739#1 -556624739#0"/>
    </vehicle>
    <vehicle id="bike88" type="bike_bicycle" depart="1253.70" departLane="best" departSpeed="max">
        <route edges="-210585066#1 -210585088#1 -11176415#4 -11176415#1 1038707887#7 80776637#1 80776637#2 -824149883#0"/>
    </vehicle>
    <vehicle id="bike89" type="bike_bicycle" depart="1267.94" departLane="best">
        <route edges="-80776632#9 -80776632#8 80776632#8 80776632#9 -215885158#7 -215885158#5 -215885158#4 -215885158#3 -215885158#0 -215795044#1 -47026383#7 -47026383#6 556826775#0 556826775#1 -1038707887#1 1109277588#1 1109277588#2 1109277589#0 1003384494#1 1003384494#2 -556624764#5 -556624764#4 -556624764#3 -556624764#1 -556624764#0 1103397427#0"/>
    </vehicle>
    <vehicle id="bike91" type="bike_bicycle" depart="1296.44" departLane="best">
        <route edges="889184723#1 -889184722#1 -73538114#1 -73538114#0 -11192348#8 -11192348#5 -11192348#3 -1050575236#0 -1050575235#1 -127605064#5"/>
    </vehicle>
    <vehicle id="bike92" type="bike_bicycle" depart="1310.68" departLane="best">
        <route edges="-80664630#11 -80664630#10 556826806#1 -556826806#1 80664630#10 80664630#11 1109277583#1 1109277585#1 1109277588#1 1109277588#2 1109277589#0 1003384494#1 1003384494#2 1109277590#0 51064594#1 51064594#3 717076905#1 684600452#2 684600452#3 684600452#4 684600452#5 684600452#6 684600452#7 -684600452#7"/>
    </vehicle>
    <vehicle id="bike93" type="bike_bicycle" depart="1324.93" departLane="best">
        <route edges="684600452#3 834856439#1 -834856439#1 -684600452#3 -684600452#2 -717076905#1 -51064594#3 -51064594#1 -1109277590#0 -1003384494#2 -1003384494#1 -1109277589#0 -1109277588#2 -1109277588#1 1038707887#1 -556826775#1 -556826775#0"/>
    </vehicle>
    <vehicle id="bike94" type="bike_bicycle" depart="1339.18" departLane="best">
        <route edges="-556624759#5 -556624759#4 556624759#4 556624759#5 -1038707887#1 1038707887#1"/>
    </vehicle>
    <vehicle id="bike96" type="bike_bicycle" depart="1367.67" departLane="best" departSpeed="max">
        <route edges="-556826788#1 11196509#2 -80664630#7 -80664630#6 -80664630#4 -80776632#4 -80776632#3 127605064#1 745690297#1"/>
    </vehicle>
    <vehicle id="bike97" type="bike_bicycle" depart="1381.92" departLane="best">
        <route edges="-902562650 -902562649 215885158#7 -80776632#9 681868489#1 684999227"/>
    </vehicle>
    <vehicle id="bike98" type="bike_bicycle" depart="1396.16" departLane="best" departSpeed="max">
        <route edges="1146958642 684600452#2 684600452#3 684600452#4 684600452#5 684600452#6 684600452#7 684600452#9 684600452#10 684600452#11 -11183171#1 -11183171#0"/>
    </vehicle>
    <vehicle id="bike99" type="bike_bicycle" depart="1410.41" departLane="best">
        <route edges="902562650 -215885158#5 -215885158#4 681868492#1"/>
    </vehicle>
    <vehicle id="bike100" type="bike_bicycle" depart="1424.66" departLane="best">
        <route edges="80776632#4 -80664630#1 11192348#5 11192348#8 -423220347#2 -423220347#1 -423220347#0 -73540498#2 -73540498#1 -73540498#0 618194901#1 618194901#2 750363161"/>
    </vehicle>
    <vehicle id="bike101" type="bike_bicycle" depart="1438.90" departLane="best">
        <route edges="681868493#1 215885158#7 -80776632#9 -80776632#8 -80664630#1 -47026382#0"/>
    </vehicle>
    <vehicle id="bike102" type="bike_bicycle" depart="1453.15" departLane="best">
        <route edges="1109277590#0 47026378#1 1103397426#1 556624764#0 -556624764#0"/>
    </vehicle>
    <vehicle id="bike103" type="bike_bicycle" depart="1467.40" departLane="best">
        <route edges="-80664630#10 -80664630#9 -80664630#7 -80664630#6 -80664630#4 -80664630#1 -11192348#3 -11192348#0"/>
    </vehicle>
    <vehicle id="bike104" type="bike_bicycle" depart="1481.64" departLane="best" departSpeed="max">
        <route edges="-745690295#3 -745690297#1 127605064#2 11192348#3 11192348#5 11192348#8 -423220347#2 -423220347#1 -423220347#0 -73540498#2 -73540498#1 -73540498#0 -73541792 -47026378#6 11183171#0 892949003#1"/>
    </vehicle>
    <vehicle id="bike106" type="bike_bicycle" depart="1510.14" departLane="best">
        <route edges="1038707887#1 -556826775#1 -556826775#0 47026383#6 47026383#7 215795044#1 215795044#2 215885158#3 215885158#4 215885158#5 215885158#7 -80776632#9"/>
    </vehicle>
    <vehicle id="bike107" type="bike_bicycle" depart="1524.38" departLane="best" departSpeed="max">
        <route edges="80776632#0 80776632#1 80776632#3 80776632#4 -80664630#1 11192348#5 11192348#8 -423220347#2 -423220347#1 -423220347#0 -73540498#2 -73540498#1 -73540498#0 -73541792 -47026378#6 11183171#0 11183171#1 -684600452#11 892949004#0 892949004#1"/>
    </vehicle>