<?xml version="1.0" encoding="UTF-8"?>

<!-- generated on 2023-10-10 19:41:18 by Eclipse SUMO duarouter Version 1.12.0
<configuration xmlns:xsi="http://www.w3.org/2001/XMLSchema-instance" xsi:noNamespaceSchemaLocation="http://sumo.dlr.de/xsd/duarouterConfiguration.xsd">

    <input>
        <net-file value="/home/eu/GSD/osmOutputDir/osm.net.xml"/>
        <route-files value="/home/eu/GSD/osmOutputDir/osm.bicycle.trips.xml"/>
    </input>

    <output>
        <output-file value="/home/eu/GSD/osmOutputDir/osm.bicycle.trips.xml.tmp"/>
        <write-trips value="true"/>
    </output>

    <time>
        <begin value="0"/>
        <end value="3600"/>
    </time>

    <report>
        <no-warnings value="true"/>
        <ignore-errors value="true"/>
        <no-step-log value="true"/>
    </report>

</configuration>
-->

<routes xmlns:xsi="http://www.w3.org/2001/XMLSchema-instance" xsi:noNamespaceSchemaLocation="http://sumo.dlr.de/xsd/routes_file.xsd">
    <vType id="bike_bicycle" vClass="bicycle"/>
    <trip id="bike0" type="bike_bicycle" depart="0.00" departLane="best" departSpeed="max" from="423220349#0" to="-1050575234#0"/>
    <trip id="bike1" type="bike_bicycle" depart="18.09" departLane="best" from="-556826783#1" to="-556624759#1"/>
    <trip id="bike2" type="bike_bicycle" depart="36.18" departLane="best" from="556624764#4" to="556624759#4"/>
    <trip id="bike3" type="bike_bicycle" depart="54.27" departLane="best" from="681868493#1" to="-11196509#0"/>
    <trip id="bike5" type="bike_bicycle" depart="90.45" departLane="best" from="-556624764#0" to="11183171"/>
    <trip id="bike7" type="bike_bicycle" depart="126.62" departLane="best" from="47026378#1" to="127605070"/>
    <trip id="bike8" type="bike_bicycle" depart="144.71" departLane="best" from="-556624764#1" to="215885158#3"/>
    <trip id="bike9" type="bike_bicycle" depart="162.80" departLane="best" from="556826779#1" to="-1021241016"/>
    <trip id="bike10" type="bike_bicycle" depart="180.89" departLane="best" from="556826779#0" to="556624764#4"/>
    <trip id="bike11" type="bike_bicycle" depart="198.98" departLane="best" from="-73540498#0" to="-423220349#0"/>
    <trip id="bike12" type="bike_bicycle" depart="217.07" departLane="best" from="80664630#7" to="-717076902"/>
    <trip id="bike13" type="bike_bicycle" depart="235.16" departLane="best" from="-215795055#0" to="-1160435050#5"/>
    <trip id="bike14" type="bike_bicycle" depart="253.25" departLane="best" from="618194907" to="423220347#0"/>
    <trip id="bike16" type="bike_bicycle" depart="289.42" departLane="best" from="11192348#5" to="824149882#1"/>
    <trip id="bike18" type="bike_bicycle" depart="325.60" departLane="best" from="556826783#1" to="47026378#3"/>
    <trip id="bike19" type="bike_bicycle" depart="343.69" departLane="best" from="618194914#0" to="215795055#4"/>
    <trip id="bike20" type="bike_bicycle" depart="361.78" departLane="best" from="556624759#0" to="-1109277587#0"/>
    <trip id="bike21" type="bike_bicycle" depart="379.87" departLane="best" from="-556624764#5" to="-556826778#0"/>
    <trip id="bike22" type="bike_bicycle" depart="397.96" departLane="best" from="-1160435050#6" to="-556624759#5"/>
    <trip id="bike23" type="bike_bicycle" depart="416.05" departLane="best" departSpeed="max" from="-215795055#4" to="-556826775#1"/>
    <trip id="bike24" type="bike_bicycle" depart="434.14" departLane="best" from="423220347#1" to="-80664630#1"/>
    <trip id="bike25" type="bike_bicycle" depart="452.23" departLane="best" departSpeed="max" from="-761391872" to="-556624739#1"/>
    <trip id="bike26" type="bike_bicycle" depart="470.32" departLane="best" from="-556826782#1" to="80664630#11"/>
    <trip id="bike27" type="bike_bicycle" depart="488.40" departLane="best" from="47026378#1" to="423220347#2"/>
    <trip id="bike29" type="bike_bicycle" depart="524.58" departLane="best" from="-47026383#6" to="-80664630#7"/>
    <trip id="bike30" type="bike_bicycle" depart="542.67" departLane="best" from="824149882#1" to="51064594#1"/>
    <trip id="bike31" type="bike_bicycle" depart="560.76" departLane="best" departSpeed="max" from="1160435050#0" to="556624761"/>
    <trip id="bike32" type="bike_bicycle" depart="578.85" departLane="best" from="618194901#1" to="556826782#1"/>
    <trip id="bike34" type="bike_bicycle" depart="615.03" departLane="best" departSpeed="max" from="-618194908" to="-556826763#0"/>
    <trip id="bike35" type="bike_bicycle" depart="633.12" departLane="best" departSpeed="max" from="-556624761" to="80664630#6"/>
    <trip id="bike36" type="bike_bicycle" depart="651.21" departLane="best" from="681868487" to="-556826807#0"/>
    <trip id="bike37" type="bike_bicycle" depart="669.29" departLane="best" from="47026378#4" to="-80776632#6"/>
    <trip id="bike39" type="bike_bicycle" depart="705.47" departLane="best" from="-556826782#0" to="-556624764#4"/>
    <trip id="bike40" type="bike_bicycle" depart="723.56" departLane="best" departSpeed="max" from="1160435050#0" to="-556624785#0"/>
    <trip id="bike41" type="bike_bicycle" depart="741.65" departLane="best" from="210328290#5" to="73540498#0"/>
    <trip id="bike42" type="bike_bicycle" depart="759.74" departLane="best" from="-80776632#1" to="-556624759#0"/>
    <trip id="bike43" type="bike_bicycle" depart="777.83" departLane="best" from="902562650" to="11192348#5"/>
    <trip id="bike44" type="bike_bicycle" depart="795.92" departLane="best" from="-215795044#1" to="-1109277588#1"/>
    <trip id="bike45" type="bike_bicycle" depart="814.01" departLane="best" departSpeed="max" from="-215885158#13" to="47026378#6"/>
    <trip id="bike46" type="bike_bicycle" depart="832.10" departLane="best" from="556826776#1" to="1003384494#1"/>
    <trip id="bike47" type="bike_bicycle" depart="850.19" departLane="best" from="-11192348#5" to="-80664630#9"/>
    <trip id="bike48" type="bike_bicycle" depart="868.27" departLane="best" from="902562648#2" to="1160435050#5"/>
    <trip id="bike49" type="bike_bicycle" depart="886.36" departLane="best" from="80776632#5" to="681868492#1"/>
    <trip id="bike50" type="bike_bicycle" depart="904.45" departLane="best" from="-1021241017#0" to="556624789#1"/>
    <trip id="bike51" type="bike_bicycle" depart="922.54" departLane="best" from="51064594#1" to="1173591674#0"/>
    <trip id="bike52" type="bike_bicycle" depart="940.63" departLane="best" from="-556826782#1" to="51064594#1"/>
    <trip id="bike54" type="bike_bicycle" depart="976.81" departLane="best" from="1038707887#1" to="80776632#5"/>
    <trip id="bike55" type="bike_bicycle" depart="994.90" departLane="best" from="681868487" to="-556624785#0"/>
    <trip id="bike56" type="bike_bicycle" depart="1012.99" departLane="best" from="1109277589#0" to="-47026382#0"/>
    <trip id="bike58" type="bike_bicycle" depart="1049.16" departLane="best" from="-618194901#1" to="47026383#7"/>
    <trip id="bike59" type="bike_bicycle" depart="1067.25" departLane="best" from="215795055#0" to="-423220347#2"/>
    <trip id="bike60" type="bike_bicycle" depart="1085.34" departLane="best" departSpeed="max" from="556624785#0" to="1173591674#1"/>
    <trip id="bike61" type="bike_bicycle" depart="1103.43" departLane="best" departSpeed="max" from="556826763#0" to="1160435050#5"/>
    <trip id="bike62" type="bike_bicycle" depart="1121.52" departLane="best" from="-1003384494#1" to="-618194901#2"/>
    <trip id="bike63" type="bike_bicycle" depart="1139.61" departLane="best" from="-1038707887#7" to="761391872"/>
    <trip id="bike64" type="bike_bicycle" depart="1157.70" departLane="best" from="681868488" to="618194913#1"/>
    <trip id="bike65" type="bike_bicycle" depart="1175.79" departLane="best" departSpeed="max" from="-618194901#3" to="-1109277590#0"/>
    <trip id="bike66" type="bike_bicycle" depart="1193.88" departLane="best" from="681868487" to="80664630#7"/>
    <trip id="bike67" type="bike_bicycle" depart="1211.97" departLane="best" departSpeed="max" from="-210585088#1" to="11179420#0"/>
    <trip id="bike68" type="bike_bicycle" depart="1230.06" departLane="best" departSpeed="max" from="-11193557#1" to="556826779#1"/>
    <trip id="bike69" type="bike_bicycle" depart="1248.14" departLane="best" from="556676147#0" to="-215885158#12"/>
    <trip id="bike71" type="bike_bicycle" depart="1284.32" departLane="best" from="-556826782#0" to="717076898"/>
    <trip id="bike72" type="bike_bicycle" depart="1302.41" departLane="best" departSpeed="max" from="-885418652" to="-556624739#1"/>
    <trip id="bike74" type="bike_bicycle" depart="1338.59" departLane="best" from="-556624759#2" to="-556826783#2"/>
    <trip id="bike75" type="bike_bicycle" depart="1356.68" departLane="best" from="902562648#2" to="556611381#1"/>
    <trip id="bike76" type="bike_bicycle" depart="1374.77" departLane="best" departSpeed="max" from="-926665816" to="11193557#1"/>
    <trip id="bike77" type="bike_bicycle" depart="1392.86" departLane="best" from="-215885158#4" to="-556624759#2"/>
    <trip id="bike78" type="bike_bicycle" depart="1410.95" departLane="best" departSpeed="max" from="-73538114#4" to="215885158#3"/>
    <trip id="bike79" type="bike_bicycle" depart="1429.03" departLane="best" from="-556624764#5" to="-556624759#0"/>
    <trip id="bike80" type="bike_bicycle" depart="1447.12" departLane="best" departSpeed="max" from="-11193557#1" to="47026383#1"/>
    <trip id="bike81" type="bike_bicycle" depart="1465.21" departLane="best" from="-556624764#5" to="73541769#0"/>
    <trip id="bike82" type="bike_bicycle" depart="1483.30" departLane="best" from="618194913#1" to="-11192348#0"/>
    <trip id="bike83" type="bike_bicycle" depart="1501.39" departLane="best" departSpeed="max" from="-556676147#1" to="556624759#2"/>
    <trip id="bike84" type="bike_bicycle" depart="1519.48" departLane="best" departSpeed="max" from="-556624761" to="-215885158#3"/>
    <trip id="bike85" type="bike_bicycle" depart="1537.57" departLane="best" from="73541792" to="215795055#3"/>
    <trip id="bike87" type="bike_bicycle" depart="1573.75" departLane="best" from="556826779#0" to="-47026383#6"/>
    <trip id="bike88" type="bike_bicycle" depart="1591.84" departLane="best" from="-215795055#3" to="1021241017#0"/>
    <trip id="bike89" type="bike_bicycle" depart="1609.93" departLane="best" departSpeed="max" from="-885418652" to="1109277585#1"/>
    <trip id="bike90" type="bike_bicycle" depart="1628.01" departLane="best" from="556624764#1" to="556624759#3"/>
    <trip id="bike91" type="bike_bicycle" depart="1646.10" departLane="best" from="80776637#2" to="-1160435050#5"/>
    <trip id="bike92" type="bike_bicycle" depart="1664.19" departLane="best" from="-80776632#6" to="-717076902"/>
    <trip id="bike93" type="bike_bicycle" depart="1682.28" departLane="best" from="618194914#0" to="-556624764#5"/>
    <trip id="bike94" type="bike_bicycle" depart="1700.37" departLane="best" from="-556624739#1" to="1050575234#1"/>
    <trip id="bike95" type="bike_bicycle" depart="1718.46" departLane="best" departSpeed="max" from="-885418652" to="-556826775#1"/>
    <trip id="bike96" type="bike_bicycle" depart="1736.55" departLane="best" from="-556826779#0" to="750363162"/>
    <trip id="bike97" type="bike_bicycle" depart="1754.64" departLane="best" from="1003384494#1" to="681868492#1"/>
    <trip id="bike99" type="bike_bicycle" depart="1790.82" departLane="best" from="902562650" to="618194914#0"/>
    <trip id="bike100" type="bike_bicycle" depart="1808.90" departLane="best" from="80776632#1" to="761391872"/>
    <trip id="bike101" type="bike_bicycle" depart="1826.99" departLane="best" from="618194907" to="-47026378#3"/>
    <trip id="bike102" type="bike_bicycle" depart="1845.08" departLane="best" from="1109277585#1" to="-556624758"/>
    <trip id="bike103" type="bike_bicycle" depart="1863.17" departLane="best" from="-80776632#5" to="-11176415#1"/>
    <trip id="bike104" type="bike_bicycle" depart="1881.26" departLane="best" from="-80664630#10" to="889184722#1"/>
    <trip id="bike105" type="bike_bicycle" depart="1899.35" departLane="best" from="-556826782#0" to="556826783#2"/>
    <trip id="bike106" type="bike_bicycle" depart="1917.44" departLane="best" from="1038707887#1" to="1003384494#1"/>
    <trip id="bike107" type="bike_bicycle" depart="1935.53" departLane="best" from="80664630#7" to="926665816"/>
    <trip id="bike109" type="bike_bicycle" depart="1971.71" departLane="best" from="-47026378#6" to="-556826780#0"/>
    <trip id="bike110" type="bike_bicycle" depart="1989.80" departLane="best" from="80776632#1" to="215885158#12"/>
    <trip id="bike111" type="bike_bicycle" depart="2007.88" departLane="best" departSpeed="max" from="11196509#0" to="556826775#0"/>
    <trip id="bike112" type="bike_bicycle" depart="2025.97" departLane="best" departSpeed="max" from="-11183171" to="215885158#13"/>
    <trip id="bike113" type="bike_bicycle" depart="2044.06" departLane="best" from="1109277589#0" to="681868488"/>
    <trip id="bike114" type="bike_bicycle" depart="2062.15" departLane="best" from="-47026382#1" to="80776632#9"/>
    <trip id="bike115" type="bike_bicycle" depart="2080.24" departLane="best" departSpeed="max" from="-210585088#1" to="-47026382#1"/>
    <trip id="bike116" type="bike_bicycle" depart="2098.33" departLane="best" from="215795044#1" to="556624759#4"/>
    <trip id="bike117" type="bike_bicycle" depart="2116.42" departLane="best" from="-556676147#0" to="-215795055#0"/>
    <trip id="bike118" type="bike_bicycle" depart="2134.51" departLane="best" from="681868492#1" to="-556624764#4"/>
    <trip id="bike119" type="bike_bicycle" depart="2152.60" departLane="best" from="215671208#2" to="47026378#4"/>
    <trip id="bike120" type="bike_bicycle" depart="2170.69" departLane="best" from="-824149883#0" to="215885158#13"/>
    <trip id="bike121" type="bike_bicycle" depart="2188.77" departLane="best" from="11179420#1" to="80664630#10"/>
    <trip id="bike122" type="bike_bicycle" depart="2206.86" departLane="best" from="-556624759#4" to="556624789#1"/>
    <trip id="bike123" type="bike_bicycle" depart="2224.95" departLane="best" departSpeed="max" from="-556676147#1" to="-80776632#6"/>
    <trip id="bike124" type="bike_bicycle" depart="2243.04" departLane="best" from="47026383#1" to="-556826782#0"/>
    <trip id="bike125" type="bike_bicycle" depart="2261.13" departLane="best" departSpeed="max" from="-618194908" to="556826775#1"/>
    <trip id="bike126" type="bike_bicycle" depart="2279.22" departLane="best" departSpeed="max" from="-11193557#1" to="1103397426#1"/>
    <trip id="bike127" type="bike_bicycle" depart="2297.31" departLane="best" from="902562650" to="926665816"/>
    <trip id="bike128" type="bike_bicycle" depart="2315.40" departLane="best" departSpeed="max" from="-11193557#1" to="-556624758"/>
    <trip id="bike129" type="bike_bicycle" depart="2333.49" departLane="best" from="-556826782#0" to="80664630#10"/>
    <trip id="bike130" type="bike_bicycle" depart="2351.58" departLane="best" from="681868488" to="717076901#1"/>
    <trip id="bike131" type="bike_bicycle" depart="2369.67" departLane="best" departSpeed="max" from="-750363162" to="-423220349#0"/>
    <trip id="bike132" type="bike_bicycle" depart="2387.75" departLane="best" from="556826783#2" to="556624782#0"/>
    <trip id="bike133" type="bike_bicycle" depart="2405.84" departLane="best" from="215795055#3" to="889184723#1"/>
    <trip id="bike134" type="bike_bicycle" depart="2423.93" departLane="best" from="47026378#4" to="-1021241016"/>
    <trip id="bike135" type="bike_bicycle" depart="2442.02" departLane="best" from="556826781#0" to="-556826780#0"/>
    <trip id="bike136" type="bike_bicycle" depart="2460.11" departLane="best" departSpeed="max" from="47026382#0" to="80664630#11"/>
    <trip id="bike137" type="bike_bicycle" depart="2478.20" departLane="best" from="-423220347#1" to="-215795047#1"/>
    <trip id="bike138" type="bike_bicycle" depart="2496.29" departLane="best" from="-215885158#12" to="210585088#1"/>
    <trip id="bike139" type="bike_bicycle" depart="2514.38" departLane="best" from="-556826783#1" to="423220347#1"/>
    <trip id="bike140" type="bike_bicycle" depart="2532.47" departLane="best" from="556624759#4" to="-556624739#0"/>
    <trip id="bike141" type="bike_bicycle" depart="2550.56" departLane="best" from="423220347#1" to="-556624785#0"/>
    <trip id="bike142" type="bike_bicycle" depart="2568.64" departLane="best" departSpeed="max" from="1109277586#0" to="73541769#0"/>
    <trip id="bike143" type="bike_bicycle" depart="2586.73" departLane="best" from="618194901#2" to="-1160435050#4"/>
    <trip id="bike144" type="bike_bicycle" depart="2604.82" departLane="best" departSpeed="max" from="-885418652" to="-556826775#1"/>
    <trip id="bike145" type="bike_bicycle" depart="2622.91" departLane="best" from="-1003384494#2" to="556826782#0"/>
    <trip id="bike146" type="bike_bicycle" depart="2641.00" departLane="best" from="423220347#2" to="-556624785#0"/>
    <trip id="bike148" type="bike_bicycle" depart="2677.18" departLane="best" from="-889184722#1" to="-1021241017#0"/>
    <trip id="bike149" type="bike_bicycle" depart="2695.27" departLane="best" from="-1160435050#5" to="717076901#1"/>
    <trip id="bike150" type="bike_bicycle" depart="2713.36" departLane="best" departSpeed="max" from="717076900" to="127605070"/>
    <trip id="bike151" type="bike_bicycle" depart="2731.45" departLane="best" departSpeed="max" from="556826807#0" to="215885158#13"/>
    <trip id="bike152" type="bike_bicycle" depart="2749.54" departLane="best" from="-47026378#4" to="-215885158#0"/>
    <trip id="bike153" type="bike_bicycle" depart="2767.62" departLane="best" departSpeed="max" from="-618194906" to="73540498#1"/>
    <trip id="bike154" type="bike_bicycle" depart="2785.71" departLane="best" departSpeed="max" from="556826777#0" to="681868492#1"/>
    <trip id="bike155" type="bike_bicycle" depart="2803.80" departLane="best" from="687411650" to="-556624739#1"/>
    <trip id="bike156" type="bike_bicycle" depart="2821.89" departLane="best" from="-556826779#0" to="-215671208#0"/>
    <trip id="bike157" type="bike_bicycle" depart="2839.98" departLane="best" departSpeed="max" from="556826763#0" to="73538114#0"/>
    <trip id="bike158" type="bike_bicycle" depart="2858.07" departLane="best" from="-80776632#9" to="47026378#4"/>
    <trip id="bike159" type="bike_bicycle" depart="2876.16" departLane="best" from="-47026378#6" to="761391872"/>
    <trip id="bike160" type="bike_bicycle" depart="2894.25" departLane="best" from="618194914#1" to="885418652"/>
    <trip id="bike161" type="bike_bicycle" depart="2912.34" departLane="best" from="556826780#0" to="717076901#1"/>
    <trip id="bike163" type="bike_bicycle" depart="2948.51" departLane="best" from="-73538114#1" to="80664630#1"/>
    <trip id="bike164" type="bike_bicycle" depart="2966.60" departLane="best" departSpeed="max" from="556826778#0" to="681868493#1"/>
    <trip id="bike166" type="bike_bicycle" depart="3002.78" departLane="best" from="556826775#1" to="-215671208#2"/>
    <trip id="bike167" type="bike_bicycle" depart="3020.87" departLane="best" from="681868486#0" to="681868490"/>
    <trip id="bike169" type="bike_bicycle" depart="3057.05" departLane="best" from="1038707887#7" to="-556826782#1"/>
    <trip id="bike170" type="bike_bicycle" depart="3075.14" departLane="best" departSpeed="max" from="556826777#0" to="-556624759#3"/>
    <trip id="bike171" type="bike_bicycle" depart="3093.23" departLane="best" from="-1050575234#1" to="-47026383#7"/>
    <trip id="bike172" type="bike_bicycle" depart="3111.32" departLane="best" from="-67564892#0" to="681868493#1"/>
    <trip id="bike173" type="bike_bicycle" depart="3129.41" departLane="best" departSpeed="max" from="80776632#0" to="-556826777#0"/>
    <trip id="bike174" type="bike_bicycle" depart="3147.49" departLane="best" departSpeed="max" from="423220349#0" to="-80776632#9"/>
    <trip id="bike175" type="bike_bicycle" depart="3165.58" departLane="best" from="80776637#1" to="1173591674#0"/>
    <trip id="bike176" type="bike_bicycle" depart="3183.67" departLane="best" from="740634262#1" to="-215795047#1"/>
    <trip id="bike177" type="bike_bicycle" depart="3201.76" departLane="best" from="80776632#1" to="-47026382#0"/>
    <trip id="bike180" type="bike_bicycle" depart="3256.03" departLane="best" from="556624764#1" to="-556826783#2"/>
    <trip id="bike181" type="bike_bicycle" depart="3274.12" departLane="best" departSpeed="max" from="215795047#0" to="11192348#5"/>
    <trip id="bike182" type="bike_bicycle" depart="3292.21" departLane="best" from="-80664630#4" to="215795055#4"/>
    <trip id="bike183" type="bike_bicycle" depart="3310.30" departLane="best" from="-556826780#0" to="556624782#1"/>
    <trip id="bike184" type="bike_bicycle" depart="3328.38" departLane="best" from="-1003384494#1" to="761391872"/>
    <trip id="bike185" type="bike_bicycle" depart="3346.47" departLane="best" from="11192348#5" to="556624789#1"/>
    <trip id="bike187" type="bike_bicycle" depart="3382.65" departLane="best" departSpeed="max" from="-750363162" to="-11192348#0"/>
    <trip id="bike188" type="bike_bicycle" depart="3400.74" departLane="best" departSpeed="max" from="47026382#0" to="-618194914#1"/>
    <trip id="bike189" type="bike_bicycle" depart="3418.83" departLane="best" departSpeed="max" from="-618194908" to="681868486#1"/>
    <trip id="bike190" type="bike_bicycle" depart="3436.92" departLane="best" from="556624759#5" to="-556826782#0"/>
    <trip id="bike191" type="bike_bicycle" depart="3455.01" departLane="best" departSpeed="max" from="-618194906" to="-80776637#3"/>
    <trip id="bike192" type="bike_bicycle" depart="3473.10" departLane="best" from="-80776632#6" to="-556826779#1"/>
    <trip id="bike193" type="bike_bicycle" depart="3491.19" departLane="best" from="-215885158#9" to="-902562650"/>
    <trip id="bike194" type="bike_bicycle" depart="3509.28" departLane="best" from="740634262#1" to="556624759#4"/>
    <trip id="bike195" type="bike_bicycle" depart="3527.36" departLane="best" departSpeed="max" from="717076900" to="47026378#1"/>
    <trip id="bike197" type="bike_bicycle" depart="3563.54" departLane="best" from="-1003384494#1" to="-556826778#0"/>
    <trip id="bike198" type="bike_bicycle" depart="3581.63" departLane="best" from="-902562649" to="215885158#12"/>
    <trip id="bike199" type="bike_bicycle" depart="3599.72" departLane="best" from="47026378#4" to="1109277583#1"/>
</routes>
