<?xml version="1.0" encoding="UTF-8"?>

<!-- generated on 2023-10-10 19:41:16 by Eclipse SUMO duarouter Version 1.12.0
<configuration xmlns:xsi="http://www.w3.org/2001/XMLSchema-instance" xsi:noNamespaceSchemaLocation="http://sumo.dlr.de/xsd/duarouterConfiguration.xsd">

    <input>
        <net-file value="/home/eu/GSD/osmOutputDir/osm.net.xml"/>
        <route-files value="/home/eu/GSD/osmOutputDir/osm.passenger.trips.xml"/>
    </input>

    <output>
        <output-file value="/home/eu/GSD/osmOutputDir/osm.passenger.trips.xml.tmp"/>
        <write-trips value="true"/>
    </output>

    <time>
        <begin value="0"/>
        <end value="3600"/>
    </time>

    <report>
        <no-warnings value="true"/>
        <ignore-errors value="true"/>
        <no-step-log value="true"/>
    </report>

</configuration>
-->

<routes xmlns:xsi="http://www.w3.org/2001/XMLSchema-instance" xsi:noNamespaceSchemaLocation="http://sumo.dlr.de/xsd/routes_file.xsd">
    <vType id="veh_passenger" vClass="passenger"/>
    <trip id="veh0" type="veh_passenger" depart="0.00" departLane="best" departSpeed="max" from="215795047#0" to="215795055#0"/>
    <trip id="veh1" type="veh_passenger" depart="11.10" departLane="best" from="67564892#0" to="-11193557#0"/>
    <trip id="veh2" type="veh_passenger" depart="22.20" departLane="best" from="-47026382#1" to="11176415#1"/>
    <trip id="veh3" type="veh_passenger" depart="33.30" departLane="best" departSpeed="max" from="-11183171" to="-215885158#5"/>
    <trip id="veh4" type="veh_passenger" depart="44.41" departLane="best" from="210328290#5" to="11183171"/>
    <trip id="veh5" type="veh_passenger" depart="55.51" departLane="best" from="-47026382#1" to="11193557#1"/>
    <trip id="veh6" type="veh_passenger" depart="66.61" departLane="best" departSpeed="max" from="423220349#0" to="-1038707887#4"/>
    <trip id="veh7" type="veh_passenger" depart="77.71" departLane="best" from="-80664630#7" to="-215671208#0"/>
    <trip id="veh8" type="veh_passenger" depart="88.81" departLane="best" departSpeed="max" from="80776632#0" to="-73541792"/>
    <trip id="veh9" type="veh_passenger" depart="99.91" departLane="best" from="-215671208#2" to="-11196509#0"/>
    <trip id="veh10" type="veh_passenger" depart="111.01" departLane="best" departSpeed="max" from="47026382#0" to="11202155#2"/>
    <trip id="veh11" type="veh_passenger" depart="122.12" departLane="best" from="1003384494#1" to="11183171"/>
    <trip id="veh12" type="veh_passenger" depart="133.22" departLane="best" from="47026378#4" to="127605070"/>
    <trip id="veh13" type="veh_passenger" depart="144.32" departLane="best" departSpeed="max" from="47026382#0" to="11193557#1"/>
    <trip id="veh14" type="veh_passenger" depart="155.42" departLane="best" departSpeed="max" from="215795047#0" to="-11177970"/>
    <trip id="veh15" type="veh_passenger" depart="166.52" departLane="best" from="-47026383#6" to="-47026382#0"/>
    <trip id="veh16" type="veh_passenger" depart="177.62" departLane="best" departSpeed="max" from="-210585088#1" to="-423220349#0"/>
    <trip id="veh17" type="veh_passenger" depart="188.73" departLane="best" from="-215795055#0" to="-47026382#0"/>
    <trip id="veh18" type="veh_passenger" depart="199.83" departLane="best" departSpeed="max" from="210328290#0" to="-80664630#7"/>
    <trip id="veh19" type="veh_passenger" depart="210.93" departLane="best" from="-73540498#0" to="73541769#1"/>
    <trip id="veh20" type="veh_passenger" depart="222.03" departLane="best" from="210328290#4" to="1160435050#6"/>
    <trip id="veh22" type="veh_passenger" depart="244.23" departLane="best" departSpeed="max" from="11196509#0" to="215795055#4"/>
    <trip id="veh23" type="veh_passenger" depart="255.33" departLane="best" from="47026383#7" to="-73538114#1"/>
    <trip id="veh24" type="veh_passenger" depart="266.44" departLane="best" from="210328290#5" to="-80776632#5"/>
    <trip id="veh25" type="veh_passenger" depart="277.54" departLane="best" from="73541769#0" to="1109277585#1"/>
    <trip id="veh26" type="veh_passenger" depart="288.64" departLane="best" departSpeed="max" from="-73538114#4" to="-47026378#1"/>
    <trip id="veh27" type="veh_passenger" depart="299.74" departLane="best" departSpeed="max" from="11196509#0" to="-47026378#5"/>
    <trip id="veh29" type="veh_passenger" depart="321.94" departLane="best" from="1038707887#4" to="-423220347#2"/>
    <trip id="veh30" type="veh_passenger" depart="333.04" departLane="best" from="80776637#3" to="11176415#4"/>
    <trip id="veh31" type="veh_passenger" depart="344.15" departLane="best" from="-215671208#2" to="-11177970"/>
    <trip id="veh32" type="veh_passenger" depart="355.25" departLane="best" departSpeed="max" from="-215795055#4" to="127605070"/>
    <trip id="veh33" type="veh_passenger" depart="366.35" departLane="best" departSpeed="max" from="423220349#0" to="1003384494#1"/>
    <trip id="veh34" type="veh_passenger" depart="377.45" departLane="best" departSpeed="max" from="-11193557#1" to="-80776632#0"/>
    <trip id="veh35" type="veh_passenger" depart="388.55" departLane="best" from="80776637#3" to="11181663#2"/>
    <trip id="veh36" type="veh_passenger" depart="399.65" departLane="best" departSpeed="max" from="80776632#0" to="51064594#3"/>
    <trip id="veh37" type="veh_passenger" depart="410.75" departLane="best" from="-1038707887#7" to="215885158#13"/>
    <trip id="veh38" type="veh_passenger" depart="421.86" departLane="best" departSpeed="max" from="215671208#0" to="11181663#2"/>
    <trip id="veh40" type="veh_passenger" depart="444.06" departLane="best" departSpeed="max" from="-215795055#4" to="1038707887#1"/>
    <trip id="veh41" type="veh_passenger" depart="455.16" departLane="best" from="47026383#6" to="-47026378#5"/>
    <trip id="veh42" type="veh_passenger" depart="466.26" departLane="best" departSpeed="max" from="11177970" to="-215795055#3"/>
    <trip id="veh44" type="veh_passenger" depart="488.47" departLane="best" from="215885158#3" to="11181663#2"/>
    <trip id="veh45" type="veh_passenger" depart="499.57" departLane="best" from="215885158#9" to="11181663#2"/>
    <trip id="veh46" type="veh_passenger" depart="510.67" departLane="best" from="-1038707887#1" to="-73540498#1"/>
    <trip id="veh47" type="veh_passenger" depart="521.77" departLane="best" from="-11176415#4" to="73541769#1"/>
    <trip id="veh48" type="veh_passenger" depart="532.87" departLane="best" from="47026383#7" to="51064594#3"/>
    <trip id="veh49" type="veh_passenger" depart="543.97" departLane="best" departSpeed="max" from="-73541769#5" to="-11192348#0"/>
    <trip id="veh50" type="veh_passenger" depart="555.07" departLane="best" from="47026383#7" to="80664630#1"/>
    <trip id="veh51" type="veh_passenger" depart="566.18" departLane="best" departSpeed="max" from="-210585088#1" to="1109277589#0"/>
    <trip id="veh52" type="veh_passenger" depart="577.28" departLane="best" departSpeed="max" from="-11193557#1" to="423220349#1"/>
    <trip id="veh53" type="veh_passenger" depart="588.38" departLane="best" from="215885158#4" to="-1160435050#5"/>
    <trip id="veh54" type="veh_passenger" depart="599.48" departLane="best" from="1109277590#0" to="11183171"/>
    <trip id="veh55" type="veh_passenger" depart="610.58" departLane="best" from="1109277585#1" to="-423220347#0"/>
    <trip id="veh56" type="veh_passenger" depart="621.68" departLane="best" departSpeed="max" from="11192348#0" to="215885158#4"/>
    <trip id="veh57" type="veh_passenger" depart="632.78" departLane="best" from="-47026378#4" to="-73538114#0"/>
    <trip id="veh58" type="veh_passenger" depart="643.89" departLane="best" from="80776637#2" to="210585088#1"/>
    <trip id="veh59" type="veh_passenger" depart="654.99" departLane="best" departSpeed="max" from="1109277586#0" to="11179420#1"/>
    <trip id="veh60" type="veh_passenger" depart="666.09" departLane="best" from="-80664630#6" to="11193557#1"/>
    <trip id="veh61" type="veh_passenger" depart="677.19" departLane="best" from="-47026383#6" to="-423220349#0"/>
    <trip id="veh62" type="veh_passenger" depart="688.29" departLane="best" from="-47026383#6" to="73541769#0"/>
    <trip id="veh63" type="veh_passenger" depart="699.39" departLane="best" from="-47026378#6" to="-1160435050#6"/>
    <trip id="veh64" type="veh_passenger" depart="710.49" departLane="best" from="80664630#11" to="11193557#0"/>
    <trip id="veh65" type="veh_passenger" depart="721.60" departLane="best" from="1109277589#0" to="47026378#6"/>
    <trip id="veh66" type="veh_passenger" depart="732.70" departLane="best" departSpeed="max" from="423220349#0" to="-215885158#3"/>
    <trip id="veh67" type="veh_passenger" depart="743.80" departLane="best" from="-215795044#1" to="1003384494#2"/>
    <trip id="veh68" type="veh_passenger" depart="754.90" departLane="best" departSpeed="max" from="215795047#0" to="215795044#2"/>
    <trip id="veh69" type="veh_passenger" depart="766.00" departLane="best" from="80776632#6" to="-11196509#0"/>
    <trip id="veh70" type="veh_passenger" depart="777.10" departLane="best" from="1038707887#7" to="-73541792"/>
    <trip id="veh71" type="veh_passenger" depart="788.21" departLane="best" departSpeed="max" from="47026382#0" to="-47026378#1"/>
    <trip id="veh72" type="veh_passenger" depart="799.31" departLane="best" from="-47026378#1" to="1109277583#1"/>
    <trip id="veh73" type="veh_passenger" depart="810.41" departLane="best" from="1109277585#1" to="-47026382#0"/>
    <trip id="veh74" type="veh_passenger" depart="821.51" departLane="best" departSpeed="max" from="-73538114#4" to="73541769#1"/>
    <trip id="veh75" type="veh_passenger" depart="832.61" departLane="best" departSpeed="max" from="1109277586#0" to="51064594#3"/>
    <trip id="veh76" type="veh_passenger" depart="843.71" departLane="best" from="11192348#5" to="-11177970"/>
    <trip id="veh77" type="veh_passenger" depart="854.81" departLane="best" from="80776637#3" to="51064594#3"/>
    <trip id="veh78" type="veh_passenger" depart="865.92" departLane="best" departSpeed="max" from="80776632#0" to="73541769#1"/>
    <trip id="veh79" type="veh_passenger" depart="877.02" departLane="best" departSpeed="max" from="47026382#0" to="-215671208#2"/>
    <trip id="veh80" type="veh_passenger" depart="888.12" departLane="best" from="11176415#1" to="-423220347#1"/>
    <trip id="veh81" type="veh_passenger" depart="899.22" departLane="best" from="1038707887#4" to="-11192348#0"/>
    <trip id="veh82" type="veh_passenger" depart="910.32" departLane="best" from="1003384494#1" to="80776632#9"/>
    <trip id="veh83" type="veh_passenger" depart="921.42" departLane="best" departSpeed="max" from="-73538114#4" to="47026378#6"/>
    <trip id="veh84" type="veh_passenger" depart="932.52" departLane="best" departSpeed="max" from="80776632#0" to="80776637#2"/>
    <trip id="veh85" type="veh_passenger" depart="943.63" departLane="best" departSpeed="max" from="11196509#0" to="215885158#13"/>
    <trip id="veh86" type="veh_passenger" depart="954.73" departLane="best" from="-215885158#3" to="-47026383#1"/>
    <trip id="veh87" type="veh_passenger" depart="965.83" departLane="best" departSpeed="max" from="80776632#0" to="11193557#1"/>
    <trip id="veh88" type="veh_passenger" depart="976.93" departLane="best" departSpeed="max" from="11192348#0" to="423220347#0"/>
    <trip id="veh89" type="veh_passenger" depart="988.03" departLane="best" departSpeed="max" from="11177970" to="51064594#3"/>
    <trip id="veh90" type="veh_passenger" depart="999.13" departLane="best" departSpeed="max" from="-210585088#1" to="-215885158#12"/>
    <trip id="veh91" type="veh_passenger" depart="1010.23" departLane="best" departSpeed="max" from="1160435050#0" to="215795044#2"/>
    <trip id="veh92" type="veh_passenger" depart="1021.34" departLane="best" from="-67564892#0" to="-1160435050#4"/>
    <trip id="veh93" type="veh_passenger" depart="1032.44" departLane="best" from="67564892#0" to="-47026378#1"/>
    <trip id="veh94" type="veh_passenger" depart="1043.54" departLane="best" from="1109277585#1" to="11193557#1"/>
    <trip id="veh96" type="veh_passenger" depart="1065.74" departLane="best" from="-47026378#4" to="215885158#13"/>
    <trip id="veh97" type="veh_passenger" depart="1076.84" departLane="best" departSpeed="max" from="215671208#0" to="-47026383#6"/>
    <trip id="veh98" type="veh_passenger" depart="1087.95" departLane="best" from="-1160435050#5" to="-423220347#1"/>
    <trip id="veh99" type="veh_passenger" depart="1099.05" departLane="best" departSpeed="max" from="-73538114#4" to="73541769#1"/>
    <trip id="veh101" type="veh_passenger" depart="1121.25" departLane="best" from="-80776637#2" to="-215671208#0"/>
    <trip id="veh102" type="veh_passenger" depart="1132.35" departLane="best" from="47026378#5" to="215885158#12"/>
    <trip id="veh103" type="veh_passenger" depart="1143.45" departLane="best" from="1160435050#6" to="80776632#9"/>
    <trip id="veh104" type="veh_passenger" depart="1154.55" departLane="best" from="210328290#5" to="-1038707887#7"/>
    <trip id="veh105" type="veh_passenger" depart="1165.66" departLane="best" from="47026378#1" to="-47026383#6"/>
    <trip id="veh106" type="veh_passenger" depart="1176.76" departLane="best" departSpeed="max" from="215671208#0" to="73541769#1"/>
    <trip id="veh107" type="veh_passenger" depart="1187.86" departLane="best" departSpeed="max" from="-215885158#13" to="-1160435050#4"/>
    <trip id="veh108" type="veh_passenger" depart="1198.96" departLane="best" departSpeed="max" from="-215795055#4" to="11183171"/>
    <trip id="veh109" type="veh_passenger" depart="1210.06" departLane="best" from="-73540498#1" to="1160435050#5"/>
    <trip id="veh110" type="veh_passenger" depart="1221.16" departLane="best" departSpeed="max" from="215795047#0" to="-215885158#7"/>
    <trip id="veh111" type="veh_passenger" depart="1232.26" departLane="best" departSpeed="max" from="210328290#0" to="-47026378#5"/>
    <trip id="veh112" type="veh_passenger" depart="1243.37" departLane="best" from="11176415#4" to="73540498#2"/>
    <trip id="veh113" type="veh_passenger" depart="1254.47" departLane="best" departSpeed="max" from="47026382#0" to="-11196509#0"/>
    <trip id="veh114" type="veh_passenger" depart="1265.57" departLane="best" from="1109277585#1" to="-47026382#0"/>
    <trip id="veh115" type="veh_passenger" depart="1276.67" departLane="best" from="-1038707887#1" to="47026378#3"/>
    <trip id="veh116" type="veh_passenger" depart="1287.77" departLane="best" departSpeed="max" from="210328290#0" to="-47026378#5"/>
    <trip id="veh117" type="veh_passenger" depart="1298.87" departLane="best" departSpeed="max" from="215795047#0" to="11183171"/>
    <trip id="veh118" type="veh_passenger" depart="1309.97" departLane="best" departSpeed="max" from="1109277586#0" to="-1038707887#7"/>
    <trip id="veh119" type="veh_passenger" depart="1321.08" departLane="best" from="-1160435050#6" to="73538114#3"/>
    <trip id="veh120" type="veh_passenger" depart="1332.18" departLane="best" departSpeed="max" from="-215885158#13" to="-1160435050#5"/>
    <trip id="veh121" type="veh_passenger" depart="1343.28" departLane="best" departSpeed="max" from="-73541769#5" to="73540498#1"/>
    <trip id="veh122" type="veh_passenger" depart="1354.38" departLane="best" departSpeed="max" from="423220349#0" to="51064594#3"/>
    <trip id="veh123" type="veh_passenger" depart="1365.48" departLane="best" departSpeed="max" from="-73538114#4" to="-11196509#0"/>
    <trip id="veh124" type="veh_passenger" depart="1376.58" departLane="best" from="1109277583#1" to="127605070"/>
    <trip id="veh125" type="veh_passenger" depart="1387.69" departLane="best" from="-215885158#3" to="73541769#1"/>
    <trip id="veh126" type="veh_passenger" depart="1398.79" departLane="best" departSpeed="max" from="-11183171" to="215885158#5"/>
    <trip id="veh127" type="veh_passenger" depart="1409.89" departLane="best" from="-80664630#4" to="73541769#1"/>
    <trip id="veh128" type="veh_passenger" depart="1420.99" departLane="best" from="423220347#1" to="-11196509#0"/>
    <trip id="veh129" type="veh_passenger" depart="1432.09" departLane="best" from="47026383#6" to="51064594#3"/>
    <trip id="veh130" type="veh_passenger" depart="1443.19" departLane="best" from="-47026382#1" to="51064594#3"/>
    <trip id="veh131" type="veh_passenger" depart="1454.29" departLane="best" departSpeed="max" from="-11183171" to="-215885158#4"/>
    <trip id="veh132" type="veh_passenger" depart="1465.40" departLane="best" from="-80664630#11" to="67564892#0"/>
    <trip id="veh133" type="veh_passenger" depart="1476.50" departLane="best" departSpeed="max" from="80776632#0" to="-47026382#0"/>
    <trip id="veh134" type="veh_passenger" depart="1487.60" departLane="best" departSpeed="max" from="210328290#0" to="-80776632#9"/>
    <trip id="veh135" type="veh_passenger" depart="1498.70" departLane="best" from="80776632#6" to="11181663#2"/>
    <trip id="veh136" type="veh_passenger" depart="1509.80" departLane="best" from="80664630#4" to="-1160435050#4"/>
    <trip id="veh137" type="veh_passenger" depart="1520.90" departLane="best" departSpeed="max" from="80776632#0" to="-215795055#3"/>
    <trip id="veh138" type="veh_passenger" depart="1532.00" departLane="best" departSpeed="max" from="80776632#0" to="-47026378#5"/>
    <trip id="veh139" type="veh_passenger" depart="1543.11" departLane="best" departSpeed="max" from="-215795055#4" to="1038707887#1"/>
    <trip id="veh140" type="veh_passenger" depart="1554.21" departLane="best" departSpeed="max" from="215795047#0" to="-73538114#0"/>
    <trip id="veh141" type="veh_passenger" depart="1565.31" departLane="best" departSpeed="max" from="1160435050#0" to="11176415#4"/>
    <trip id="veh142" type="veh_passenger" depart="1576.41" departLane="best" from="1003384494#2" to="11193557#1"/>
    <trip id="veh143" type="veh_passenger" depart="1587.51" departLane="best" departSpeed="max" from="-73538114#4" to="215885158#13"/>
    <trip id="veh144" type="veh_passenger" depart="1598.61" departLane="best" from="-1038707887#1" to="73541769#1"/>
    <trip id="veh145" type="veh_passenger" depart="1609.71" departLane="best" departSpeed="max" from="11192348#0" to="215885158#13"/>
    <trip id="veh146" type="veh_passenger" depart="1620.82" departLane="best" departSpeed="max" from="215795047#0" to="215795044#1"/>
    <trip id="veh147" type="veh_passenger" depart="1631.92" departLane="best" from="-80776637#1" to="-11192348#0"/>
    <trip id="veh148" type="veh_passenger" depart="1643.02" departLane="best" departSpeed="max" from="215671208#0" to="-73541769#0"/>
    <trip id="veh149" type="veh_passenger" depart="1654.12" departLane="best" from="-73541792" to="51064594#3"/>
    <trip id="veh150" type="veh_passenger" depart="1665.22" departLane="best" departSpeed="max" from="-73541769#5" to="-80776637#2"/>
    <trip id="veh151" type="veh_passenger" depart="1676.32" departLane="best" from="1038707887#7" to="-47026383#1"/>
    <trip id="veh152" type="veh_passenger" depart="1687.43" departLane="best" from="-215885158#0" to="1003384494#1"/>
    <trip id="veh153" type="veh_passenger" depart="1698.53" departLane="best" from="80664630#4" to="215795055#0"/>
    <trip id="veh154" type="veh_passenger" depart="1709.63" departLane="best" from="73540498#0" to="127605070"/>
    <trip id="veh155" type="veh_passenger" depart="1720.73" departLane="best" departSpeed="max" from="-73541769#5" to="11183171"/>
    <trip id="veh156" type="veh_passenger" depart="1731.83" departLane="best" from="-1038707887#1" to="-47026382#0"/>
    <trip id="veh157" type="veh_passenger" depart="1742.93" departLane="best" departSpeed="max" from="1109277586#0" to="11193557#1"/>
    <trip id="veh158" type="veh_passenger" depart="1754.03" departLane="best" departSpeed="max" from="1109277586#0" to="-423220347#1"/>
    <trip id="veh159" type="veh_passenger" depart="1765.14" departLane="best" from="1109277589#0" to="73540498#1"/>
    <trip id="veh160" type="veh_passenger" depart="1776.24" departLane="best" departSpeed="max" from="423220349#0" to="-215671208#2"/>
    <trip id="veh161" type="veh_passenger" depart="1787.34" departLane="best" departSpeed="max" from="-210585088#1" to="11179420#1"/>
    <trip id="veh162" type="veh_passenger" depart="1798.44" departLane="best" departSpeed="max" from="210328290#0" to="-73541769#0"/>
    <trip id="veh163" type="veh_passenger" depart="1809.54" departLane="best" from="47026378#1" to="423220347#1"/>
    <trip id="veh164" type="veh_passenger" depart="1820.64" departLane="best" departSpeed="max" from="215671208#0" to="-423220349#0"/>
    <trip id="veh165" type="veh_passenger" depart="1831.74" departLane="best" from="-47026378#3" to="-1109277586#1"/>
    <trip id="veh166" type="veh_passenger" depart="1842.85" departLane="best" from="-73538114#1" to="1109277588#2"/>
    <trip id="veh167" type="veh_passenger" depart="1853.95" departLane="best" from="1109277583#1" to="127605070"/>
    <trip id="veh168" type="veh_passenger" depart="1865.05" departLane="best" from="-47026378#1" to="215795055#4"/>
    <trip id="veh169" type="veh_passenger" depart="1876.15" departLane="best" departSpeed="max" from="11177970" to="-47026378#1"/>
    <trip id="veh170" type="veh_passenger" depart="1887.25" departLane="best" departSpeed="max" from="215671208#0" to="-1038707887#4"/>
    <trip id="veh171" type="veh_passenger" depart="1898.35" departLane="best" from="215795055#0" to="47026378#3"/>
    <trip id="veh172" type="veh_passenger" depart="1909.45" departLane="best" departSpeed="max" from="-215795055#4" to="1003384494#2"/>
    <trip id="veh173" type="veh_passenger" depart="1920.56" departLane="best" from="-423220347#0" to="80664630#4"/>
    <trip id="veh174" type="veh_passenger" depart="1931.66" departLane="best" from="11179420#1" to="-11177970"/>
    <trip id="veh175" type="veh_passenger" depart="1942.76" departLane="best" departSpeed="max" from="-73538114#4" to="51064594#3"/>
    <trip id="veh176" type="veh_passenger" depart="1953.86" departLane="best" departSpeed="max" from="215671208#0" to="80776632#9"/>
    <trip id="veh177" type="veh_passenger" depart="1964.96" departLane="best" departSpeed="max" from="1160435050#0" to="80664630#10"/>
    <trip id="veh178" type="veh_passenger" depart="1976.06" departLane="best" from="67564892#0" to="127605070"/>
    <trip id="veh179" type="veh_passenger" depart="1987.17" departLane="best" departSpeed="max" from="215795047#0" to="11176415#1"/>
    <trip id="veh180" type="veh_passenger" depart="1998.27" departLane="best" from="1109277590#0" to="-47026378#4"/>
    <trip id="veh182" type="veh_passenger" depart="2020.47" departLane="best" from="215885158#4" to="11181663#1"/>
    <trip id="veh183" type="veh_passenger" depart="2031.57" departLane="best" departSpeed="max" from="210328290#0" to="-47026382#0"/>
    <trip id="veh184" type="veh_passenger" depart="2042.67" departLane="best" from="-1160435050#6" to="-47026382#0"/>
    <trip id="veh185" type="veh_passenger" depart="2053.77" departLane="best" departSpeed="max" from="11192348#0" to="-215671208#0"/>
    <trip id="veh186" type="veh_passenger" depart="2064.88" departLane="best" from="-47026383#7" to="215795055#4"/>
    <trip id="veh187" type="veh_passenger" depart="2075.98" departLane="best" departSpeed="max" from="215795047#0" to="-11192348#0"/>
    <trip id="veh188" type="veh_passenger" depart="2087.08" departLane="best" from="1109277583#1" to="11183171"/>
    <trip id="veh189" type="veh_passenger" depart="2098.18" departLane="best" from="1109277585#1" to="-215885158#9"/>
    <trip id="veh190" type="veh_passenger" depart="2109.28" departLane="best" from="1109277585#1" to="73540498#2"/>
    <trip id="veh192" type="veh_passenger" depart="2131.48" departLane="best" departSpeed="max" from="47026382#0" to="47026378#1"/>
    <trip id="veh193" type="veh_passenger" depart="2142.59" departLane="best" departSpeed="max" from="47026382#0" to="80664630#10"/>
    <trip id="veh194" type="veh_passenger" depart="2153.69" departLane="best" from="1109277585#1" to="423220347#0"/>
    <trip id="veh195" type="veh_passenger" depart="2164.79" departLane="best" from="11192348#2" to="11202155#2"/>
    <trip id="veh196" type="veh_passenger" depart="2175.89" departLane="best" from="-47026382#1" to="-423220347#2"/>
    <trip id="veh197" type="veh_passenger" depart="2186.99" departLane="best" from="-80664630#6" to="215795055#0"/>
    <trip id="veh198" type="veh_passenger" depart="2198.09" departLane="best" from="1038707887#7" to="-215671208#2"/>
    <trip id="veh199" type="veh_passenger" depart="2209.19" departLane="best" from="1038707887#1" to="11192348#2"/>
    <trip id="veh201" type="veh_passenger" depart="2231.40" departLane="best" departSpeed="max" from="-215885158#13" to="1109277585#1"/>
    <trip id="veh202" type="veh_passenger" depart="2242.50" departLane="best" from="-11193557#0" to="-80776632#0"/>
    <trip id="veh203" type="veh_passenger" depart="2253.60" departLane="best" from="215795055#3" to="51064594#3"/>
    <trip id="veh204" type="veh_passenger" depart="2264.70" departLane="best" from="-11176415#4" to="11181663#2"/>
    <trip id="veh205" type="veh_passenger" depart="2275.80" departLane="best" from="80776637#3" to="-80664630#11"/>
    <trip id="veh206" type="veh_passenger" depart="2286.91" departLane="best" from="210328290#5" to="47026378#5"/>
    <trip id="veh207" type="veh_passenger" depart="2298.01" departLane="best" from="210328290#5" to="423220347#2"/>
    <trip id="veh208" type="veh_passenger" depart="2309.11" departLane="best" departSpeed="max" from="-11183171" to="-215671208#0"/>
    <trip id="veh209" type="veh_passenger" depart="2320.21" departLane="best" departSpeed="max" from="11196509#0" to="-423220347#2"/>
    <trip id="veh210" type="veh_passenger" depart="2331.31" departLane="best" departSpeed="max" from="215795047#0" to="47026378#3"/>
    <trip id="veh211" type="veh_passenger" depart="2342.41" departLane="best" from="-215885158#7" to="1160435050#5"/>
    <trip id="veh212" type="veh_passenger" depart="2353.51" departLane="best" departSpeed="max" from="215795047#0" to="-1160435050#4"/>
    <trip id="veh213" type="veh_passenger" depart="2364.62" departLane="best" from="47026378#1" to="80664630#6"/>
    <trip id="veh214" type="veh_passenger" depart="2375.72" departLane="best" departSpeed="max" from="-215795055#4" to="-1109277586#1"/>
    <trip id="veh215" type="veh_passenger" depart="2386.82" departLane="best" departSpeed="max" from="-73541769#5" to="215795055#0"/>
    <trip id="veh216" type="veh_passenger" depart="2397.92" departLane="best" departSpeed="max" from="215795047#0" to="-11192348#0"/>
    <trip id="veh217" type="veh_passenger" depart="2409.02" departLane="best" from="215671208#2" to="127605070"/>
    <trip id="veh218" type="veh_passenger" depart="2420.12" departLane="best" from="-215795055#0" to="47026378#4"/>
    <trip id="veh219" type="veh_passenger" depart="2431.22" departLane="best" departSpeed="max" from="47026382#0" to="11202155#2"/>
    <trip id="veh220" type="veh_passenger" depart="2442.33" departLane="best" departSpeed="max" from="-215795055#4" to="80776632#6"/>
    <trip id="veh221" type="veh_passenger" depart="2453.43" departLane="best" from="423220347#0" to="-80664630#10"/>
    <trip id="veh222" type="veh_passenger" depart="2464.53" departLane="best" departSpeed="max" from="1109277586#0" to="-80776632#0"/>
    <trip id="veh223" type="veh_passenger" depart="2475.63" departLane="best" departSpeed="max" from="47026382#0" to="51064594#3"/>
    <trip id="veh224" type="veh_passenger" depart="2486.73" departLane="best" from="-215795055#3" to="80664630#4"/>
    <trip id="veh225" type="veh_passenger" depart="2497.83" departLane="best" departSpeed="max" from="210328290#0" to="51064594#3"/>
    <trip id="veh226" type="veh_passenger" depart="2508.93" departLane="best" departSpeed="max" from="215795047#0" to="1038707887#1"/>
    <trip id="veh227" type="veh_passenger" depart="2520.04" departLane="best" from="-73540498#1" to="51064594#1"/>
    <trip id="veh228" type="veh_passenger" depart="2531.14" departLane="best" departSpeed="max" from="11192348#0" to="1109277588#2"/>
    <trip id="veh229" type="veh_passenger" depart="2542.24" departLane="best" departSpeed="max" from="1109277586#0" to="215885158#4"/>
    <trip id="veh230" type="veh_passenger" depart="2553.34" departLane="best" from="-73540498#0" to="51064594#3"/>
    <trip id="veh231" type="veh_passenger" depart="2564.44" departLane="best" departSpeed="max" from="47026382#0" to="-215885158#0"/>
    <trip id="veh232" type="veh_passenger" depart="2575.54" departLane="best" from="-47026378#5" to="47026383#6"/>
    <trip id="veh233" type="veh_passenger" depart="2586.65" departLane="best" from="-80664630#7" to="73538114#3"/>
    <trip id="veh234" type="veh_passenger" depart="2597.75" departLane="best" departSpeed="max" from="215795047#0" to="-47026382#0"/>
    <trip id="veh235" type="veh_passenger" depart="2608.85" departLane="best" departSpeed="max" from="-210585088#1" to="215885158#13"/>
    <trip id="veh236" type="veh_passenger" depart="2619.95" departLane="best" from="11176415#4" to="423220349#1"/>
    <trip id="veh237" type="veh_passenger" depart="2631.05" departLane="best" from="215671208#2" to="210585088#1"/>
    <trip id="veh238" type="veh_passenger" depart="2642.15" departLane="best" from="11176415#4" to="47026382#1"/>
    <trip id="veh239" type="veh_passenger" depart="2653.25" departLane="best" from="-215671208#2" to="-423220349#0"/>
    <trip id="veh240" type="veh_passenger" depart="2664.36" departLane="best" departSpeed="max" from="11192348#0" to="1003384494#2"/>
    <trip id="veh241" type="veh_passenger" depart="2675.46" departLane="best" departSpeed="max" from="215795047#0" to="-73541769#0"/>
    <trip id="veh242" type="veh_passenger" depart="2686.56" departLane="best" departSpeed="max" from="215795047#0" to="-47026378#6"/>