<?xml version="1.0" encoding="UTF-8"?>

<!-- generated on 2023-10-10 19:41:16 by Eclipse SUMO duarouter Version 1.12.0
<configuration xmlns:xsi="http://www.w3.org/2001/XMLSchema-instance" xsi:noNamespaceSchemaLocation="http://sumo.dlr.de/xsd/duarouterConfiguration.xsd">

    <input>
        <net-file value="/home/eu/GSD/osmOutputDir/osm.net.xml"/>
        <route-files value="/home/eu/GSD/osmOutputDir/osm.truck.trips.xml"/>
    </input>

    <output>
        <output-file value="/home/eu/GSD/osmOutputDir/osm.truck.trips.xml.tmp"/>
        <write-trips value="true"/>
    </output>

    <time>
        <begin value="0"/>
        <end value="3600"/>
    </time>

    <report>
        <no-warnings value="true"/>
        <ignore-errors value="true"/>
        <no-step-log value="true"/>
    </report>

</configuration>
-->

<routes xmlns:xsi="http://www.w3.org/2001/XMLSchema-instance" xsi:noNamespaceSchemaLocation="http://sumo.dlr.de/xsd/routes_file.xsd">
    <vType id="truck_truck" vClass="truck"/>
    <trip id="truck0" type="truck_truck" depart="0.00" departLane="best" from="73540498#0" to="-11192348#0"/>
    <trip id="truck1" type="truck_truck" depart="16.65" departLane="best" departSpeed="max" from="-11183171" to="-215885158#0"/>
    <trip id="truck2" type="truck_truck" depart="33.30" departLane="best" departSpeed="max" from="210328290#0" to="11183171"/>
    <trip id="truck3" type="truck_truck" depart="49.96" departLane="best" from="-423220347#2" to="11193557#1"/>
    <trip id="truck4" type="truck_truck" depart="66.61" departLane="best" departSpeed="max" from="-73541769#5" to="-1160435050#6"/>
    <trip id="truck5" type="truck_truck" depart="83.26" departLane="best" departSpeed="max" from="47026382#0" to="11202155#0"/>
    <trip id="truck6" type="truck_truck" depart="99.91" departLane="best" from="-80664630#7" to="11183171"/>
    <trip id="truck7" type="truck_truck" depart="116.57" departLane="best" from="47026383#1" to="11193557#0"/>
    <trip id="truck8" type="truck_truck" depart="133.22" departLane="best" from="215795044#2" to="-11177970"/>
    <trip id="truck9" type="truck_truck" depart="149.87" departLane="best" departSpeed="max" from="-210585088#1" to="-47026378#4"/>
    <trip id="truck10" type="truck_truck" depart="166.52" departLane="best" from="-47026383#7" to="73541792"/>
    <trip id="truck12" type="truck_truck" depart="199.83" departLane="best" from="80664630#1" to="1003384494#2"/>
    <trip id="truck13" type="truck_truck" depart="216.48" departLane="best" departSpeed="max" from="11196509#0" to="73540498#1"/>
    <trip id="truck14" type="truck_truck" depart="233.13" departLane="best" from="-1160435050#6" to="-11177970"/>
    <trip id="truck15" type="truck_truck" depart="249.78" departLane="best" departSpeed="max" from="-11193557#1" to="-80664630#4"/>
    <trip id="truck16" type="truck_truck" depart="266.44" departLane="best" from="80776637#3" to="11181663#2"/>
    <trip id="truck17" type="truck_truck" depart="283.09" departLane="best" departSpeed="max" from="11177970" to="-215671208#2"/>
    <trip id="truck18" type="truck_truck" depart="299.74" departLane="best" departSpeed="max" from="-73538114#4" to="127605070"/>
    <trip id="truck19" type="truck_truck" depart="316.39" departLane="best" from="423220347#2" to="11181663#2"/>
    <trip id="truck20" type="truck_truck" depart="333.04" departLane="best" from="-11176415#4" to="73541769#1"/>
    <trip id="truck21" type="truck_truck" depart="349.70" departLane="best" departSpeed="max" from="-11193557#1" to="215885158#5"/>
    <trip id="truck22" type="truck_truck" depart="366.35" departLane="best" from="215885158#9" to="-1160435050#4"/>
    <trip id="truck23" type="truck_truck" depart="383.00" departLane="best" from="1109277588#2" to="11183171"/>
    <trip id="truck25" type="truck_truck" depart="416.31" departLane="best" departSpeed="max" from="-73541769#5" to="11193557#1"/>
    <trip id="truck26" type="truck_truck" depart="432.96" departLane="best" departSpeed="max" from="-11193557#1" to="127605070"/>
    <trip id="truck27" type="truck_truck" depart="449.61" departLane="best" from="47026383#1" to="-11192348#0"/>
    <trip id="truck28" type="truck_truck" depart="466.26" departLane="best" from="-47026378#4" to="210585088#1"/>
    <trip id="truck29" type="truck_truck" depart="482.91" departLane="best" from="-423220347#0" to="-1160435050#4"/>
    <trip id="truck30" type="truck_truck" depart="499.57" departLane="best" departSpeed="max" from="11192348#0" to="-11177970"/>
    <trip id="truck31" type="truck_truck" depart="516.22" departLane="best" from="80776637#3" to="51064594#3"/>
    <trip id="truck32" type="truck_truck" depart="532.87" departLane="best" from="80776632#1" to="73541769#1"/>
    <trip id="truck33" type="truck_truck" depart="549.52" departLane="best" departSpeed="max" from="47026382#0" to="-215671208#0"/>
    <trip id="truck34" type="truck_truck" depart="566.18" departLane="best" departSpeed="max" from="1109277586#0" to="-80776632#1"/>
    <trip id="truck35" type="truck_truck" depart="582.83" departLane="best" from="80776632#1" to="11193557#0"/>
    <trip id="truck36" type="truck_truck" depart="599.48" departLane="best" departSpeed="max" from="-11193557#1" to="-215795044#1"/>
    <trip id="truck37" type="truck_truck" depart="616.13" departLane="best" from="-47026378#3" to="-11196509#0"/>
    <trip id="truck38" type="truck_truck" depart="632.78" departLane="best" from="-47026378#4" to="-80664630#9"/>
    <trip id="truck39" type="truck_truck" depart="649.44" departLane="best" departSpeed="max" from="215671208#0" to="-47026382#0"/>
    <trip id="truck40" type="truck_truck" depart="666.09" departLane="best" departSpeed="max" from="-11193557#1" to="-215885158#4"/>
    <trip id="truck41" type="truck_truck" depart="682.74" departLane="best" from="-47026383#7" to="73541792"/>
    <trip id="truck42" type="truck_truck" depart="699.39" departLane="best" from="-80664630#4" to="-215671208#0"/>
    <trip id="truck43" type="truck_truck" depart="716.05" departLane="best" departSpeed="max" from="1160435050#0" to="80776637#1"/>
    <trip id="truck44" type="truck_truck" depart="732.70" departLane="best" from="47026378#3" to="-47026382#0"/>
    <trip id="truck45" type="truck_truck" depart="749.35" departLane="best" departSpeed="max" from="-215795055#4" to="-11196509#0"/>
    <trip id="truck46" type="truck_truck" depart="766.00" departLane="best" departSpeed="max" from="-210585088#1" to="11183171"/>
    <trip id="truck47" type="truck_truck" depart="782.65" departLane="best" departSpeed="max" from="215795047#0" to="-215885158#12"/>
    <trip id="truck48" type="truck_truck" depart="799.31" departLane="best" from="1160435050#5" to="-423220349#1"/>
    <trip id="truck49" type="truck_truck" depart="815.96" departLane="best" from="1109277590#0" to="73540498#2"/>
    <trip id="truck50" type="truck_truck" depart="832.61" departLane="best" from="215885158#12" to="11183171"/>
    <trip id="truck51" type="truck_truck" depart="849.26" departLane="best" departSpeed="max" from="-11193557#1" to="73538114#3"/>
    <trip id="truck52" type="truck_truck" depart="865.92" departLane="best" departSpeed="max" from="47026382#0" to="11193557#1"/>
    <trip id="truck53" type="truck_truck" depart="882.57" departLane="best" departSpeed="max" from="-215795055#4" to="-1160435050#4"/>
    <trip id="truck54" type="truck_truck" depart="899.22" departLane="best" from="-47026378#6" to="-11196509#0"/>
    <trip id="truck55" type="truck_truck" depart="915.87" departLane="best" from="47026378#1" to="73538114#3"/>
    <trip id="truck56" type="truck_truck" depart="932.52" departLane="best" departSpeed="max" from="-11183171" to="215885158#13"/>
    <trip id="truck57" type="truck_truck" depart="949.18" departLane="best" from="47026378#1" to="-423220349#1"/>
    <trip id="truck58" type="truck_truck" depart="965.83" departLane="best" departSpeed="max" from="423220349#0" to="-11196509#0"/>
    <trip id="truck59" type="truck_truck" depart="982.48" departLane="best" departSpeed="max" from="1109277586#0" to="-47026382#0"/>
    <trip id="truck60" type="truck_truck" depart="999.13" departLane="best" departSpeed="max" from="80776632#0" to="-47026378#4"/>
    <trip id="truck61" type="truck_truck" depart="1015.79" departLane="best" departSpeed="max" from="210328290#0" to="-80776632#0"/>
    <trip id="truck62" type="truck_truck" depart="1032.44" departLane="best" from="80776632#1" to="-215671208#0"/>
    <trip id="truck63" type="truck_truck" depart="1049.09" departLane="best" departSpeed="max" from="215795047#0" to="-47026382#1"/>
    <trip id="truck64" type="truck_truck" depart="1065.74" departLane="best" from="-80776632#1" to="11193557#0"/>
    <trip id="truck65" type="truck_truck" depart="1082.39" departLane="best" from="-1038707887#1" to="73541769#1"/>
    <trip id="truck66" type="truck_truck" depart="1099.05" departLane="best" from="-80664630#11" to="-11192348#0"/>
    <trip id="truck67" type="truck_truck" depart="1115.70" departLane="best" from="-73540498#1" to="51064594#3"/>
    <trip id="truck68" type="truck_truck" depart="1132.35" departLane="best" departSpeed="max" from="215795047#0" to="-47026382#0"/>
    <trip id="truck69" type="truck_truck" depart="1149.00" departLane="best" from="-73540498#0" to="-80776632#0"/>
    <trip id="truck70" type="truck_truck" depart="1165.66" departLane="best" from="73540498#2" to="11202155#2"/>
    <trip id="truck71" type="truck_truck" depart="1182.31" departLane="best" departSpeed="max" from="-73538114#4" to="11183171"/>
    <trip id="truck72" type="truck_truck" depart="1198.96" departLane="best" from="1109277588#1" to="73540498#1"/>
    <trip id="truck73" type="truck_truck" depart="1215.61" departLane="best" departSpeed="max" from="423220349#0" to="-215671208#0"/>
    <trip id="truck74" type="truck_truck" depart="1232.26" departLane="best" from="1160435050#5" to="-73538114#0"/>
    <trip id="truck75" type="truck_truck" depart="1248.92" departLane="best" departSpeed="max" from="215671208#0" to="-215885158#9"/>
    <trip id="truck76" type="truck_truck" depart="1265.57" departLane="best" from="-47026378#5" to="1109277583#1"/>
    <trip id="truck77" type="truck_truck" depart="1282.22" departLane="best" from="-80776637#3" to="127605070"/>
    <trip id="truck78" type="truck_truck" depart="1298.87" departLane="best" departSpeed="max" from="-215885158#13" to="80664630#6"/>
    <trip id="truck79" type="truck_truck" depart="1315.53" departLane="best" departSpeed="max" from="1109277586#0" to="47026378#4"/>
    <trip id="truck80" type="truck_truck" depart="1332.18" departLane="best" from="210328290#5" to="80776637#1"/>
    <trip id="truck81" type="truck_truck" depart="1348.83" departLane="best" from="73540498#0" to="11202155#2"/>
    <trip id="truck82" type="truck_truck" depart="1365.48" departLane="best" from="73540498#1" to="215885158#13"/>
    <trip id="truck83" type="truck_truck" depart="1382.13" departLane="best" from="-47026378#6" to="127605070"/>
    <trip id="truck84" type="truck_truck" depart="1398.79" departLane="best" departSpeed="max" from="11192348#0" to="-1160435050#4"/>
    <trip id="truck85" type="truck_truck" depart="1415.44" departLane="best" from="215795044#2" to="-11177970"/>
    <trip id="truck86" type="truck_truck" depart="1432.09" departLane="best" from="-80776637#2" to="11181663#2"/>
    <trip id="truck87" type="truck_truck" depart="1448.74" departLane="best" departSpeed="max" from="11196509#0" to="215795055#0"/>
    <trip id="truck88" type="truck_truck" depart="1465.40" departLane="best" from="1003384494#1" to="215885158#13"/>
    <trip id="truck89" type="truck_truck" depart="1482.05" departLane="best" departSpeed="max" from="11192348#0" to="11202155#0"/>
    <trip id="truck90" type="truck_truck" depart="1498.70" departLane="best" departSpeed="max" from="-73541769#5" to="215671208#2"/>
    <trip id="truck91" type="truck_truck" depart="1515.35" departLane="best" from="-80776637#1" to="-215671208#0"/>
    <trip id="truck92" type="truck_truck" depart="1532.00" departLane="best" from="-80776632#6" to="11183171"/>
    <trip id="truck93" type="truck_truck" depart="1548.66" departLane="best" departSpeed="max" from="-11183171" to="127605070"/>
    <trip id="truck94" type="truck_truck" depart="1565.31" departLane="best" departSpeed="max" from="-215795055#4" to="1038707887#1"/>
    <trip id="truck95" type="truck_truck" depart="1581.96" departLane="best" from="215885158#4" to="51064594#1"/>
    <trip id="truck96" type="truck_truck" depart="1598.61" departLane="best" departSpeed="max" from="210328290#0" to="423220347#1"/>
    <trip id="truck97" type="truck_truck" depart="1615.27" departLane="best" departSpeed="max" from="-215885158#13" to="11202155#1"/>
    <trip id="truck98" type="truck_truck" depart="1631.92" departLane="best" from="47026378#4" to="80664630#9"/>
    <trip id="truck99" type="truck_truck" depart="1648.57" departLane="best" from="-73540498#1" to="210585088#1"/>
    <trip id="truck100" type="truck_truck" depart="1665.22" departLane="best" departSpeed="max" from="47026382#0" to="11193557#1"/>
    <trip id="truck101" type="truck_truck" depart="1681.87" departLane="best" departSpeed="max" from="47026382#0" to="47026383#6"/>
    <trip id="truck102" type="truck_truck" depart="1698.53" departLane="best" departSpeed="max" from="11192348#0" to="1109277588#1"/>
    <trip id="truck103" type="truck_truck" depart="1715.18" departLane="best" from="1038707887#7" to="215885158#13"/>
    <trip id="truck104" type="truck_truck" depart="1731.83" departLane="best" from="47026378#6" to="-11192348#0"/>
    <trip id="truck105" type="truck_truck" depart="1748.48" departLane="best" departSpeed="max" from="47026382#0" to="-215671208#2"/>
    <trip id="truck106" type="truck_truck" depart="1765.14" departLane="best" from="-1160435050#5" to="215795055#4"/>
    <trip id="truck107" type="truck_truck" depart="1781.79" departLane="best" departSpeed="max" from="215671208#0" to="-47026382#0"/>
    <trip id="truck108" type="truck_truck" depart="1798.44" departLane="best" departSpeed="max" from="-215885158#13" to="-215885158#5"/>
    <trip id="truck109" type="truck_truck" depart="1815.09" departLane="best" from="1109277590#0" to="215885158#12"/>
    <trip id="truck110" type="truck_truck" depart="1831.74" departLane="best" departSpeed="max" from="-215885158#13" to="-1109277586#1"/>
    <trip id="truck111" type="truck_truck" depart="1848.40" departLane="best" from="80776632#5" to="11183171"/>
    <trip id="truck113" type="truck_truck" depart="1881.70" departLane="best" departSpeed="max" from="-215885158#13" to="-11177970"/>
    <trip id="truck114" type="truck_truck" depart="1898.35" departLane="best" from="47026378#5" to="-80776632#0"/>
    <trip id="truck115" type="truck_truck" depart="1915.01" departLane="best" departSpeed="max" from="-11193557#1" to="127605070"/>
    <trip id="truck116" type="truck_truck" depart="1931.66" departLane="best" from="-11192348#5" to="-1160435050#5"/>
    <trip id="truck118" type="truck_truck" depart="1964.96" departLane="best" from="-47026378#1" to="215795055#4"/>
    <trip id="truck119" type="truck_truck" depart="1981.61" departLane="best" departSpeed="max" from="215671208#0" to="73541769#1"/>
    <trip id="truck120" type="truck_truck" depart="1998.27" departLane="best" departSpeed="max" from="423220349#0" to="127605070"/>
    <trip id="truck121" type="truck_truck" depart="2014.92" departLane="best" departSpeed="max" from="210328290#0" to="73541792"/>
    <trip id="truck122" type="truck_truck" depart="2031.57" departLane="best" departSpeed="max" from="210328290#0" to="73541769#0"/>
    <trip id="truck123" type="truck_truck" depart="2048.22" departLane="best" from="47026378#6" to="-11192348#0"/>
    <trip id="truck124" type="truck_truck" depart="2064.88" departLane="best" departSpeed="max" from="-73538114#4" to="-11196509#0"/>
    <trip id="truck125" type="truck_truck" depart="2081.53" departLane="best" departSpeed="max" from="215671208#0" to="215795055#3"/>
    <trip id="truck126" type="truck_truck" depart="2098.18" departLane="best" departSpeed="max" from="-11183171" to="-80776632#6"/>
    <trip id="truck127" type="truck_truck" depart="2114.83" departLane="best" departSpeed="max" from="-11183171" to="215885158#4"/>
    <trip id="truck128" type="truck_truck" depart="2131.48" departLane="best" from="80664630#1" to="-215671208#2"/>
    <trip id="truck129" type="truck_truck" depart="2148.14" departLane="best" departSpeed="max" from="-73538114#4" to="80664630#10"/>
    <trip id="truck130" type="truck_truck" depart="2164.79" departLane="best" departSpeed="max" from="1109277586#0" to="-47026382#1"/>
    <trip id="truck131" type="truck_truck" depart="2181.44" departLane="best" from="-73541769#0" to="80776632#1"/>
    <trip id="truck132" type="truck_truck" depart="2198.09" departLane="best" departSpeed="max" from="11192348#0" to="73541769#1"/>
    <trip id="truck133" type="truck_truck" depart="2214.75" departLane="best" departSpeed="max" from="1160435050#0" to="-423220347#2"/>
    <trip id="truck134" type="truck_truck" depart="2231.40" departLane="best" from="-215885158#0" to="11183171"/>
    <trip id="truck135" type="truck_truck" depart="2248.05" departLane="best" departSpeed="max" from="47026382#0" to="1109277590#0"/>
    <trip id="truck136" type="truck_truck" depart="2264.70" departLane="best" from="-67564892#0" to="51064594#1"/>
    <trip id="truck137" type="truck_truck" depart="2281.35" departLane="best" departSpeed="max" from="11177970" to="47026383#1"/>
    <trip id="truck138" type="truck_truck" depart="2298.01" departLane="best" departSpeed="max" from="11196509#0" to="80776637#3"/>
    <trip id="truck139" type="truck_truck" depart="2314.66" departLane="best" departSpeed="max" from="11192348#0" to="-73540498#0"/>
    <trip id="truck140" type="truck_truck" depart="2331.31" departLane="best" departSpeed="max" from="11192348#0" to="11181663#2"/>
    <trip id="truck141" type="truck_truck" depart="2347.96" departLane="best" departSpeed="max" from="11196509#0" to="-423220347#1"/>
    <trip id="truck142" type="truck_truck" depart="2364.62" departLane="best" from="47026378#1" to="-80664630#6"/>
    <trip id="truck143" type="truck_truck" depart="2381.27" departLane="best" departSpeed="max" from="-11183171" to="11176415#1"/>
    <trip id="truck144" type="truck_truck" depart="2397.92" departLane="best" departSpeed="max" from="11196509#0" to="73538114#1"/>
    <trip id="truck145" type="truck_truck" depart="2414.57" departLane="best" departSpeed="max" from="1109277586#0" to="80776632#1"/>
    <trip id="truck146" type="truck_truck" depart="2431.22" departLane="best" departSpeed="max" from="210328290#0" to="51064594#3"/>
    <trip id="truck147" type="truck_truck" depart="2447.88" departLane="best" departSpeed="max" from="-11193557#1" to="127605070"/>
    <trip id="truck149" type="truck_truck" depart="2481.18" departLane="best" departSpeed="max" from="215671208#0" to="73540498#2"/>
    <trip id="truck150" type="truck_truck" depart="2497.83" departLane="best" departSpeed="max" from="-73538114#4" to="-80664630#10"/>
    <trip id="truck151" type="truck_truck" depart="2514.49" departLane="best" departSpeed="max" from="-215795055#4" to="11181663#2"/>
    <trip id="truck152" type="truck_truck" depart="2531.14" departLane="best" from="11192348#5" to="47026378#1"/>
    <trip id="truck153" type="truck_truck" depart="2547.79" departLane="best" departSpeed="max" from="-215795055#4" to="1038707887#1"/>
    <trip id="truck154" type="truck_truck" depart="2564.44" departLane="best" from="73540498#2" to="210585088#1"/>
    <trip id="truck155" type="truck_truck" depart="2581.09" departLane="best" departSpeed="max" from="-73541769#5" to="11193557#1"/>
    <trip id="truck156" type="truck_truck" depart="2597.75" departLane="best" departSpeed="max" from="11196509#0" to="11192348#5"/>
    <trip id="truck157" type="truck_truck" depart="2614.40" departLane="best" from="-73538114#0" to="11183171"/>
    <trip id="truck158" type="truck_truck" depart="2631.05" departLane="best" departSpeed="max" from="215671208#0" to="215885158#13"/>
    <trip id="truck159" type="truck_truck" depart="2647.70" departLane="best" from="-11192348#2" to="11202155#0"/>
    <trip id="truck161" type="truck_truck" depart="2681.01" departLane="best" departSpeed="max" from="215671208#0" to="215795055#4"/>
    <trip id="truck162" type="truck_truck" depart="2697.66" departLane="best" departSpeed="max" from="210328290#0" to="51064594#3"/>
    <trip id="truck163" type="truck_truck" depart="2714.31" departLane="best" departSpeed="max" from="1160435050#0" to="73540498#2"/>
    <trip id="truck164" type="truck_truck" depart="2730.96" departLane="best" departSpeed="max" from="210328290#0" to="-47026382#0"/>
    <trip id="truck165" type="truck_truck" depart="2747.62" departLane="best" from="1109277583#1" to="11193557#0"/>
    <trip id="truck166" type="truck_truck" depart="2764.27" departLane="best" departSpeed="max" from="-215885158#13" to="-1160435050#4"/>
    <trip id="truck168" type="truck_truck" depart="2797.57" departLane="best" departSpeed="max" from="-73541769#5" to="-11196509#0"/>
    <trip id="truck169" type="truck_truck" depart="2814.23" departLane="best" departSpeed="max" from="80776632#0" to="-1160435050#4"/>
    <trip id="truck170" type="truck_truck" depart="2830.88" departLane="best" departSpeed="max" from="80776632#0" to="47026378#5"/>
    <trip id="truck171" type="truck_truck" depart="2847.53" departLane="best" departSpeed="max" from="-11183171" to="73538114#3"/>
    <trip id="truck172" type="truck_truck" depart="2864.18" departLane="best" from="11192348#2" to="73541769#1"/>
    <trip id="truck173" type="truck_truck" depart="2880.83" departLane="best" departSpeed="max" from="-215795055#4" to="80664630#10"/>
    <trip id="truck174" type="truck_truck" depart="2897.49" departLane="best" departSpeed="max" from="-73538114#4" to="1109277589#0"/>
    <trip id="truck175" type="truck_truck" depart="2914.14" departLane="best" departSpeed="max" from="-215795055#4" to="1003384494#1"/>
    <trip id="truck176" type="truck_truck" depart="2930.79" departLane="best" from="210328290#5" to="215885158#13"/>
    <trip id="truck177" type="truck_truck" depart="2947.44" departLane="best" from="215885158#12" to="-1160435050#6"/>
    <trip id="truck178" type="truck_truck" depart="2964.10" departLane="best" departSpeed="max" from="80776632#0" to="-1109277586#1"/>
    <trip id="truck179" type="truck_truck" depart="2980.75" departLane="best" departSpeed="max" from="80776632#0" to="51064594#3"/>
    <trip id="truck180" type="truck_truck" depart="2997.40" departLane="best" departSpeed="max" from="47026382#0" to="1003384494#1"/>
    <trip id="truck181" type="truck_truck" depart="3014.05" departLane="best" departSpeed="max" from="-11193557#1" to="215885158#7"/>
    <trip id="truck182" type="truck_truck" depart="3030.70" departLane="best" departSpeed="max" from="-215795055#4" to="-1160435050#4"/>
    <trip id="truck183" type="truck_truck" depart="3047.36" departLane="best" from="-47026378#6" to="-215671208#0"/>
    <trip id="truck184" type="truck_truck" depart="3064.01" departLane="best" departSpeed="max" from="-215885158#13" to="-11177970"/>
    <trip id="truck185" type="truck_truck" depart="3080.66" departLane="best" from="215885158#12" to="11181663#2"/>
    <trip id="truck186" type="truck_truck" depart="3097.31" departLane="best" departSpeed="max" from="80776632#0" to="-11177970"/>
    <trip id="truck187" type="truck_truck" depart="3113.97" departLane="best" from="1109277588#2" to="-80776632#0"/>
    <trip id="truck188" type="truck_truck" depart="3130.62" departLane="best" from="73541792" to="-11192348#0"/>
    <trip id="truck189" type="truck_truck" depart="3147.27" departLane="best" departSpeed="max" from="-11193557#1" to="11202155#1"/>
    <trip id="truck190" type="truck_truck" depart="3163.92" departLane="best" from="1160435050#5" to="11183171"/>
    <trip id="truck191" type="truck_truck" depart="3180.57" departLane="best" departSpeed="max" from="210328290#0" to="215885158#9"/>
    <trip id="truck192" type="truck_truck" depart="3197.23" departLane="best" departSpeed="max" from="1109277586#0" to="-423220347#0"/>
    <trip id="truck193" type="truck_truck" depart="3213.88" departLane="best" departSpeed="max" from="-73541769#5" to="1003384494#1"/>
    <trip id="truck194" type="truck_truck" depart="3230.53" departLane="best" from="1003384494#1" to="-11192348#5"/>
    <trip id="truck195" type="truck_truck" depart="3247.18" departLane="best" departSpeed="max" from="-210585088#1" to="215885158#13"/>
    <trip id="truck196" type="truck_truck" depart="3263.84" departLane="best" departSpeed="max" from="11196509#0" to="11183171"/>
    <trip id="truck197" type="truck_truck" depart="3280.49" departLane="best" departSpeed="max" from="-73541769#5" to="-11196509#0"/>
    <trip id="truck199" type="truck_truck" depart="3313.79" departLane="best" departSpeed="max" from="210328290#0" to="-215885158#9"/>
    <trip id="truck200" type="truck_truck" depart="3330.44" departLane="best" departSpeed="max" from="-210585088#1" to="51064594#3"/>
    <trip id="truck201" type="truck_truck" depart="3347.10" departLane="best" departSpeed="max" from="11196509#0" to="47026378#5"/>
    <trip id="truck202" type="truck_truck" depart="3363.75" departLane="best" departSpeed="max" from="-73541769#5" to="-1038707887#4"/>
    <trip id="truck203" type="truck_truck" depart="3380.40" departLane="best" from="47026383#7" to="11183171"/>
    <trip id="truck204" type="truck_truck" depart="3397.05" departLane="best" from="-80776632#9" to="-1160435050#4"/>
    <trip id="truck205" type="truck_truck" depart="3413.71" departLane="best" from="1003384494#1" to="-73538114#1"/>
    <trip id="truck206" type="truck_truck" depart="3430.36" departLane="best" from="-1160435050#5" to="-11177970"/>
    <trip id="truck207" type="truck_truck" depart="3447.01" departLane="best" from="1109277583#1" to="-47026378#3"/>
    <trip id="truck208" type="truck_truck" depart="3463.66" departLane="best" from="210328290#5" to="-11177970"/>
    <trip id="truck209" type="truck_truck" depart="3480.31" departLane="best" from="-80776632#6" to="11193557#1"/>
    <trip id="truck210" type="truck_truck" depart="3496.97" departLane="best" from="-423220347#0" to="-1160435050#4"/>
    <trip id="truck211" type="truck_truck" depart="3513.62" departLane="best" from="-1038707887#4" to="215885158#13"/>
    <trip id="truck212" type="truck_truck" depart="3530.27" departLane="best" departSpeed="max" from="-215885158#13" to="-80664630#4"/>
    <trip id="truck213" type="truck_truck" depart="3546.92" departLane="best" departSpeed="max" from="47026382#0" to="47026378#5"/>
    <trip id="truck214" type="truck_truck" depart="3563.58" departLane="best" departSpeed="max" from="-11193557#1" to="73538114#0"/>
    <trip id="truck215" type="truck_truck" depart="3580.23" departLane="best" departSpeed="max" from="-11183171" to="-1109277586#1"/>
    <trip id="truck216" type="truck_truck" depart="3596.88" departLane="best" departSpeed="max" from="11196509#0" to="11192348#5"/>
</routes>
