<?xml version="1.0" encoding="UTF-8"?>

<!-- generated on 2023-10-10 19:41:18.398961 by osmWebWizard.py UNKNOWN
  options: -o osmOutputDir
-->

<routes xmlns:xsi="http://www.w3.org/2001/XMLSchema-instance" xsi:noNamespaceSchemaLocation="http://sumo.dlr.de/xsd/routes_file.xsd">
    <vType id="ped_pedestrian" vClass="pedestrian"/>
    <person id="ped0" depart="0.00" type="ped_pedestrian">
        <walk from="556550806#5" to="-11176415#4"/>
    </person>
    <person id="ped1" depart="6.88" type="ped_pedestrian">
        <walk from="1050575198" to="1021241021#6"/>
    </person>
    <person id="ped2" depart="13.76" type="ped_pedestrian">
        <walk from="556826772#1" to="556624764#3"/>
    </person>
    <person id="ped3" depart="20.64" type="ped_pedestrian">
        <walk from="67571406#16" to="-47026383#7"/>
    </person>
    <person id="ped4" depart="27.52" type="ped_pedestrian">
        <walk from="215885158#13" to="-11181663#3"/>
    </person>
    <person id="ped5" depart="34.40" type="ped_pedestrian">
        <walk from="1021241021#3" to="549743620#6"/>
    </person>
    <person id="ped6" depart="41.27" type="ped_pedestrian">
        <walk from="-11177970" to="-902562650"/>
    </person>
    <person id="ped7" depart="48.15" type="ped_pedestrian">
        <walk from="556550857#0" to="556419575#5"/>
    </person>
    <person id="ped8" depart="55.03" type="ped_pedestrian">
        <walk from="1021241021#4" to="556419584#11"/>
    </person>
    <person id="ped9" depart="61.91" type="ped_pedestrian">
        <walk from="564831538#1" to="-1038707887#1"/>
    </person>
    <person id="ped10" depart="68.79" type="ped_pedestrian">
        <walk from="564831532" to="556676148#2"/>
    </person>
    <person id="ped11" depart="75.67" type="ped_pedestrian">
        <walk from="1109277590#0" to="-717076902"/>
    </person>
    <person id="ped12" depart="82.55" type="ped_pedestrian">
        <walk from="80776632#6" to="1109277588#1"/>
    </person>
    <person id="ped13" depart="89.43" type="ped_pedestrian">
        <walk from="-556624738#1" to="-556624758"/>
    </person>
    <person id="ped14" depart="96.31" type="ped_pedestrian">
        <walk from="564831564#1" to="556419586#0"/>
    </person>
    <person id="ped15" depart="103.19" type="ped_pedestrian">
        <walk from="564831534" to="556826771#2"/>
    </person>
    <person id="ped16" depart="110.07" type="ped_pedestrian">
        <walk from="556419575#14" to="889184722#1"/>
    </person>
    <person id="ped17" depart="116.94" type="ped_pedestrian">
        <walk from="146831006#0" to="556419576#0"/>
    </person>
    <person id="ped18" depart="123.82" type="ped_pedestrian">
        <walk from="564831555#0" to="556419586#7"/>
    </person>
    <person id="ped19" depart="130.70" type="ped_pedestrian">
        <walk from="584441841#0" to="556419583#2"/>
    </person>
    <person id="ped20" depart="137.58" type="ped_pedestrian">
        <walk from="556826753#1" to="-210328290#4"/>
    </person>
    <person id="ped21" depart="144.46" type="ped_pedestrian">
        <walk from="1021241022#0" to="1050575206#2"/>
    </person>
    <person id="ped22" depart="151.34" type="ped_pedestrian">
        <walk from="-47026378#6" to="1021241024#0"/>
    </person>
    <person id="ped23" depart="158.22" type="ped_pedestrian">
        <walk from="-556624759#2" to="1050575200"/>
    </person>
    <person id="ped24" depart="165.10" type="ped_pedestrian">
        <walk from="556550806#2" to="1160435050#5"/>
    </person>
    <person id="ped25" depart="171.98" type="ped_pedestrian">
        <walk from="1193003685#0" to="1021241020#0"/>
    </person>
    <person id="ped26" depart="178.86" type="ped_pedestrian">
        <walk from="1050575196#0" to="73541769#1"/>
    </person>
    <person id="ped27" depart="185.74" type="ped_pedestrian">
        <walk from="556550856" to="556419586#12"/>
    </person>
    <person id="ped28" depart="192.61" type="ped_pedestrian">
        <walk from="-761391872" to="556826771#1"/>
    </person>
    <person id="ped29" depart="199.49" type="ped_pedestrian">
        <walk from="-73540498#2" to="146831006#0"/>
    </person>
    <person id="ped30" depart="206.37" type="ped_pedestrian">
        <walk from="998827562#2" to="556550806#6"/>
    </person>
    <person id="ped31" depart="213.25" type="ped_pedestrian">
        <walk from="556419576#13" to="556624783#0"/>
    </person>
    <person id="ped32" depart="220.13" type="ped_pedestrian">
        <walk from="564831560#4" to="556826816#0"/>
    </person>
    <person id="ped33" depart="227.01" type="ped_pedestrian">
        <walk from="1021241022#1" to="-11192348#0"/>
    </person>
    <person id="ped34" depart="233.89" type="ped_pedestrian">
        <walk from="1050575230#0" to="1050575196#0"/>
    </person>
    <person id="ped35" depart="240.77" type="ped_pedestrian">
        <walk from="1021241020#2" to="777486509"/>
    </person>
    <person id="ped36" depart="247.65" type="ped_pedestrian">
        <walk from="618194912#3" to="1050575229#1"/>
    </person>
    <person id="ped37" depart="254.53" type="ped_pedestrian">
        <walk from="556611380#0" to="146831017#1"/>
    </person>
    <person id="ped38" depart="261.40" type="ped_pedestrian">
        <walk from="681868490" to="423220349#1"/>
    </person>
    <person id="ped39" depart="268.28" type="ped_pedestrian">
        <walk from="1050575194#1" to="1036637089"/>
    </person>
    <person id="ped40" depart="275.16" type="ped_pedestrian">
        <walk from="556419576#3" to="1050575193#2"/>
    </person>
    <person id="ped41" depart="282.04" type="ped_pedestrian">
        <walk from="556419583#8" to="67571406#3"/>
    </person>
    <person id="ped42" depart="288.92" type="ped_pedestrian">
        <walk from="146831019#0" to="1021241021#3"/>
    </person>
    <person id="ped43" depart="295.80" type="ped_pedestrian">
        <walk from="998827570#0" to="549743620#9"/>
    </person>
    <person id="ped44" depart="302.68" type="ped_pedestrian">
        <walk from="-556611380#0" to="-210328290#5"/>
    </person>
    <person id="ped45" depart="309.56" type="ped_pedestrian">
        <walk from="-556624764#3" to="556419599#5"/>
    </person>
    <person id="ped46" depart="316.44" type="ped_pedestrian">
        <walk from="564831525" to="215885158#13"/>
    </person>
    <person id="ped47" depart="323.32" type="ped_pedestrian">
        <walk from="-215885158#4" to="146831006#2"/>
    </person>
    <person id="ped48" depart="330.20" type="ped_pedestrian">
        <walk from="998827569#1" to="556419575#0"/>
    </person>
    <person id="ped49" depart="337.07" type="ped_pedestrian">
        <walk from="835163613#1" to="584441840#1"/>
    </person>
    <person id="ped50" depart="343.95" type="ped_pedestrian">
        <walk from="-1050575234#1" to="556826770#2"/>
    </person>
    <person id="ped51" depart="350.83" type="ped_pedestrian">
        <walk from="556624782#1" to="556419575#14"/>
    </person>
    <person id="ped52" depart="357.71" type="ped_pedestrian">
        <walk from="1050575196#0" to="556550806#6"/>
    </person>
    <person id="ped53" depart="364.59" type="ped_pedestrian">
        <walk from="-556624764#4" to="354680398#4"/>
    </person>
    <person id="ped54" depart="371.47" type="ped_pedestrian">
        <walk from="423220347#0" to="80776632#0"/>
    </person>
    <person id="ped55" depart="378.35" type="ped_pedestrian">
        <walk from="618194912#3" to="1050575193#2"/>
    </person>
    <person id="ped56" depart="385.23" type="ped_pedestrian">
        <walk from="549743620#21" to="-80664630#6"/>
    </person>
    <person id="ped57" depart="392.11" type="ped_pedestrian">
        <walk from="681868488" to="618194906"/>
    </person>
    <person id="ped58" depart="398.99" type="ped_pedestrian">
        <walk from="1050575213#1" to="556550806#5"/>
    </person>
    <person id="ped59" depart="405.87" type="ped_pedestrian">
        <walk from="556419586#12" to="-618194914#1"/>
    </person>
    <person id="ped60" depart="412.74" type="ped_pedestrian">
        <walk from="556826787" to="556419575#16"/>
    </person>
    <person id="ped61" depart="419.62" type="ped_pedestrian">
        <walk from="556826817#0" to="556419575#1"/>
    </person>
    <person id="ped62" depart="426.50" type="ped_pedestrian">
        <walk from="-1003384494#1" to="1050575234#0"/>
    </person>
    <person id="ped63" depart="433.38" type="ped_pedestrian">
        <walk from="-1109277588#1" to="73538114#1"/>
    </person>
    <person id="ped64" depart="440.26" type="ped_pedestrian">
        <walk from="618194914#0" to="564831555#2"/>
    </person>
    <person id="ped65" depart="447.14" type="ped_pedestrian">
        <walk from="1050575220#1" to="-215885158#0"/>
    </person>
    <person id="ped66" depart="454.02" type="ped_pedestrian">
        <walk from="618194914#0" to="80664630#11"/>
    </person>
    <person id="ped67" depart="460.90" type="ped_pedestrian">
        <walk from="-47026383#6" to="549743620#10"/>
    </person>
    <person id="ped68" depart="467.78" type="ped_pedestrian">
        <walk from="-423220347#1" to="556826786#1"/>
    </person>
    <person id="ped69" depart="474.66" type="ped_pedestrian">
        <walk from="556826806#1" to="-556826779#0"/>
    </person>
    <person id="ped70" depart="481.54" type="ped_pedestrian">
        <walk from="478555364#1" to="556419575#8"/>
    </person>
    <person id="ped71" depart="488.41" type="ped_pedestrian">
        <walk from="1050575194#1" to="618194907"/>
    </person>
    <person id="ped72" depart="495.29" type="ped_pedestrian">
        <walk from="215885158#3" to="1021241020#2"/>
    </person>
    <person id="ped73" depart="502.17" type="ped_pedestrian">
        <walk from="556419575#16" to="556826771#2"/>
    </person>
    <person id="ped74" depart="509.05" type="ped_pedestrian">
        <walk from="1003384494#1" to="1050575228#0"/>
    </person>
    <person id="ped75" depart="515.93" type="ped_pedestrian">
        <walk from="998827564#2" to="556550857#0"/>
    </person>
    <person id="ped76" depart="522.81" type="ped_pedestrian">
        <walk from="354680398#6" to="556419573#14"/>
    </person>
    <person id="ped77" depart="529.69" type="ped_pedestrian">
        <walk from="-556826763#0" to="1021241021#7"/>
    </person>
    <person id="ped78" depart="536.57" type="ped_pedestrian">
        <walk from="1109277588#2" to="556419584#10"/>
    </person>
    <person id="ped79" depart="543.45" type="ped_pedestrian">
        <walk from="1021241022#1" to="1021241021#4"/>
    </person>
    <person id="ped80" depart="550.33" type="ped_pedestrian">
        <walk from="-423220347#2" to="556550806#1"/>
    </person>
    <person id="ped81" depart="557.21" type="ped_pedestrian">
        <walk from="1021241022#1" to="67571406#9"/>
    </person>
    <person id="ped82" depart="564.08" type="ped_pedestrian">
        <walk from="584441840#1" to="-423220347#2"/>
    </person>
    <person id="ped83" depart="570.96" type="ped_pedestrian">
        <walk from="1024966100#2" to="556624759#4"/>
    </person>
    <person id="ped84" depart="577.84" type="ped_pedestrian">
        <walk from="1021241020#4" to="-556826780#1"/>
    </person>
    <person id="ped85" depart="584.72" type="ped_pedestrian">
        <walk from="73541769#0" to="556419583#11"/>
    </person>
    <person id="ped86" depart="591.60" type="ped_pedestrian">
        <walk from="478555361" to="564831522"/>
    </person>
    <person id="ped87" depart="598.48" type="ped_pedestrian">
        <walk from="564831534" to="-80776637#2"/>
    </person>
    <person id="ped88" depart="605.36" type="ped_pedestrian">
        <walk from="-556624758" to="354680398#1"/>
    </person>
    <person id="ped89" depart="612.24" type="ped_pedestrian">
        <walk from="215885158#3" to="47026382#1"/>
    </person>
    <person id="ped90" depart="619.12" type="ped_pedestrian">
        <walk from="556826771#1" to="556624761"/>
    </person>
    <person id="ped91" depart="626.00" type="ped_pedestrian">
        <walk from="998827553#0" to="-556624759#0"/>
    </person>
    <person id="ped92" depart="632.87" type="ped_pedestrian">
        <walk from="146831019#2" to="1109277589#0"/>
    </person>
    <person id="ped93" depart="639.75" type="ped_pedestrian">
        <walk from="584441841#0" to="1038707887#4"/>
    </person>
    <person id="ped94" depart="646.63" type="ped_pedestrian">
        <walk from="-80776637#2" to="354680403#2"/>
    </person>
    <person id="ped95" depart="653.51" type="ped_pedestrian">
        <walk from="215885158#13" to="1050575201#1"/>
    </person>
    <person id="ped96" depart="660.39" type="ped_pedestrian">
        <walk from="1038707887#7" to="717076900"/>
    </person>
    <person id="ped97" depart="667.27" type="ped_pedestrian">
        <walk from="354680401" to="584441841#0"/>
    </person>
    <person id="ped98" depart="674.15" type="ped_pedestrian">
        <walk from="556419575#9" to="-215671208#2"/>
    </person>
    <person id="ped99" depart="681.03" type="ped_pedestrian">
        <walk from="998827570#1" to="564831557"/>
    </person>
    <person id="ped100" depart="687.91" type="ped_pedestrian">
        <walk from="835163612#1" to="717076902"/>
    </person>
    <person id="ped101" depart="694.79" type="ped_pedestrian">
        <walk from="574186221#1" to="-73541769#5"/>
    </person>
    <person id="ped102" depart="701.67" type="ped_pedestrian">
        <walk from="549743620#10" to="1021241020#4"/>
    </person>
    <person id="ped103" depart="708.54" type="ped_pedestrian">
        <walk from="146831019#1" to="-215885158#12"/>
    </person>
    <person id="ped104" depart="715.42" type="ped_pedestrian">
        <walk from="146831006#0" to="998827553#1"/>
    </person>
    <person id="ped105" depart="722.30" type="ped_pedestrian">
        <walk from="1050575194#1" to="564831521#2"/>
    </person>
    <person id="ped106" depart="729.18" type="ped_pedestrian">
        <walk from="423220347#1" to="215885158#3"/>
    </person>
    <person id="ped107" depart="736.06" type="ped_pedestrian">
        <walk from="80776632#6" to="998827564#2"/>
    </person>
    <person id="ped108" depart="742.94" type="ped_pedestrian">
        <walk from="556419576#12" to="556826770#0"/>
    </person>
    <person id="ped109" depart="749.82" type="ped_pedestrian">
        <walk from="-717076902" to="1050575212#2"/>
    </person>
    <person id="ped110" depart="756.70" type="ped_pedestrian">
        <walk from="835163612#0" to="556419583#4"/>
    </person>
    <person id="ped111" depart="763.58" type="ped_pedestrian">
        <walk from="556419575#2" to="556826780#1"/>
    </person>
    <person id="ped112" depart="770.46" type="ped_pedestrian">
        <walk from="-215795055#4" to="556419583#8"/>
    </person>
    <person id="ped113" depart="777.34" type="ped_pedestrian">
        <walk from="549743620#3" to="574186222#1"/>
    </person>
    <person id="ped114" depart="784.21" type="ped_pedestrian">
        <walk from="-73538114#1" to="80776637#1"/>
    </person>
    <person id="ped115" depart="791.09" type="ped_pedestrian">
        <walk from="-47026378#6" to="-80776632#5"/>
    </person>
    <person id="ped116" depart="797.97" type="ped_pedestrian">
        <walk from="556419584#15" to="556624764#1"/>
    </person>
    <person id="ped117" depart="804.85" type="ped_pedestrian">
        <walk from="1021241024#1" to="-556676147#1"/>
    </person>
    <person id="ped118" depart="811.73" type="ped_pedestrian">
        <walk from="67571406#14" to="1036637089"/>
    </person>
    <person id="ped119" depart="818.61" type="ped_pedestrian">
        <walk from="556419584#15" to="556419586#8"/>
    </person>
    <person id="ped120" depart="825.49" type="ped_pedestrian">
        <walk from="215795055#4" to="556419583#7"/>
    </person>
    <person id="ped121" depart="832.37" type="ped_pedestrian">
        <walk from="556419573#18" to="73540498#2"/>
    </person>
    <person id="ped122" depart="839.25" type="ped_pedestrian">
        <walk from="1021241017#0" to="556826761#3"/>
    </person>
    <person id="ped123" depart="846.13" type="ped_pedestrian">
        <walk from="1024966100#2" to="146831017#1"/>
    </person>
    <person id="ped124" depart="853.01" type="ped_pedestrian">
        <walk from="556624760" to="1050575214"/>
    </person>
    <person id="ped125" depart="859.88" type="ped_pedestrian">
        <walk from="1050575230#1" to="556826782#1"/>
    </person>
    <person id="ped126" depart="866.76" type="ped_pedestrian">
        <walk from="-423220349#0" to="423220349#1"/>
    </person>
    <person id="ped127" depart="873.64" type="ped_pedestrian">
        <walk from="998827570#0" to="998827564#2"/>
    </person>
    <person id="ped128" depart="880.52" type="ped_pedestrian">
        <walk from="-423220349#1" to="1021241020#3"/>
    </person>
    <person id="ped129" depart="887.40" type="ped_pedestrian">
        <walk from="1050575194#1" to="73540498#1"/>
    </person>
    <person id="ped130" depart="894.28" type="ped_pedestrian">
        <walk from="67564892#0" to="618194914#1"/>
    </person>
    <person id="ped131" depart="901.16" type="ped_pedestrian">
        <walk from="1193003685#0" to="-73538114#1"/>
    </person>
    <person id="ped132" depart="908.04" type="ped_pedestrian">
        <walk from="564831555#4" to="556826753#1"/>
    </person>
    <person id="ped133" depart="914.92" type="ped_pedestrian">
        <walk from="556419586#2" to="998827562#1"/>
    </person>
    <person id="ped134" depart="921.80" type="ped_pedestrian">
        <walk from="556550871#1" to="-1038707887#7"/>
    </person>
    <person id="ped135" depart="928.68" type="ped_pedestrian">
        <walk from="564831544" to="1050575214"/>
    </person>
    <person id="ped136" depart="935.55" type="ped_pedestrian">
        <walk from="556624759#0" to="740634262#1"/>
    </person>
    <person id="ped137" depart="942.43" type="ped_pedestrian">
        <walk from="-556826782#1" to="-556624783#1"/>
    </person>
    <person id="ped138" depart="949.31" type="ped_pedestrian">
        <walk from="-556624764#0" to="556419576#10"/>
    </person>
    <person id="ped139" depart="956.19" type="ped_pedestrian">
        <walk from="1050575197#1" to="556419586#1"/>
    </person>
    <person id="ped140" depart="963.07" type="ped_pedestrian">
        <walk from="556826763#0" to="1021241016"/>
    </person>
    <person id="ped141" depart="969.95" type="ped_pedestrian">
        <walk from="556550806#14" to="1050575194#1"/>
    </person>
    <person id="ped142" depart="976.83" type="ped_pedestrian">
        <walk from="549743620#12" to="67571406#9"/>
    </person>
    <person id="ped143" depart="983.71" type="ped_pedestrian">
        <walk from="564831562" to="-556611381#1"/>
    </person>
    <person id="ped144" depart="990.59" type="ped_pedestrian">
        <walk from="215885158#3" to="1050575199#1"/>
    </person>
    <person id="ped145" depart="997.47" type="ped_pedestrian">
        <walk from="-1021241016" to="556826814#1"/>
    </person>
    <person id="ped146" depart="1004.35" type="ped_pedestrian">
        <walk from="556550806#3" to="1050575193#1"/>
    </person>
    <person id="ped147" depart="1011.22" type="ped_pedestrian">
        <walk from="556826777#0" to="556419576#0"/>
    </person>
    <person id="ped148" depart="1018.10" type="ped_pedestrian">
        <walk from="215885158#7" to="-1050575234#0"/>
    </person>
    <person id="ped149" depart="1024.98" type="ped_pedestrian">
        <walk from="-47026378#1" to="67571406#1"/>
    </person>
    <person id="ped150" depart="1031.86" type="ped_pedestrian">
        <walk from="67571406#8" to="556419575#5"/>
    </person>
    <person id="ped151" depart="1038.74" type="ped_pedestrian">
        <walk from="564831555#4" to="556419583#6"/>
    </person>
    <person id="ped152" depart="1045.62" type="ped_pedestrian">
        <walk from="-618194901#3" to="-556826779#0"/>
    </person>
    <person id="ped153" depart="1052.50" type="ped_pedestrian">
        <walk from="1050575227#0" to="67571406#4"/>
    </person>
    <person id="ped154" depart="1059.38" type="ped_pedestrian">
        <walk from="564831529#1" to="584441840#1"/>
    </person>
    <person id="ped155" depart="1066.26" type="ped_pedestrian">
        <walk from="67571406#4" to="1021241020#0"/>
    </person>
    <person id="ped156" depart="1073.14" type="ped_pedestrian">
        <walk from="1038707887#4" to="-556624759#4"/>
    </person>
    <person id="ped157" depart="1080.01" type="ped_pedestrian">
        <walk from="556826817#1" to="67571406#1"/>
    </person>
    <person id="ped158" depart="1086.89" type="ped_pedestrian">
        <walk from="210328290#4" to="556419586#9"/>
    </person>
    <person id="ped159" depart="1093.77" type="ped_pedestrian">
        <walk from="-67564892#0" to="73538114#3"/>
    </person>
    <person id="ped160" depart="1100.65" type="ped_pedestrian">
        <walk from="584441842" to="902562648#2"/>
    </person>
    <person id="ped161" depart="1107.53" type="ped_pedestrian">
        <walk from="564831538#2" to="67564892#0"/>
    </person>
    <person id="ped162" depart="1114.41" type="ped_pedestrian">
        <walk from="-11176415#4" to="556826772#1"/>
    </person>
    <person id="ped163" depart="1121.29" type="ped_pedestrian">
        <walk from="1109277583#1" to="73538114#3"/>
    </person>
    <person id="ped164" depart="1128.17" type="ped_pedestrian">
        <walk from="564831530#1" to="584441842"/>
    </person>
    <person id="ped165" depart="1135.05" type="ped_pedestrian">
        <walk from="564831538#2" to="1050575196#0"/>
    </person>
    <person id="ped166" depart="1141.93" type="ped_pedestrian">
        <walk from="564831523#2" to="-556624764#1"/>
    </person>
    <person id="ped167" depart="1148.81" type="ped_pedestrian">
        <walk from="618194907" to="584441840#0"/>
    </person>
    <person id="ped168" depart="1155.68" type="ped_pedestrian">
        <walk from="1021241021#6" to="564831543#1"/>
    </person>
    <person id="ped169" depart="1162.56" type="ped_pedestrian">
        <walk from="47026378#1" to="1050575217#1"/>
    </person>
    <person id="ped170" depart="1169.44" type="ped_pedestrian">
        <walk from="564831528" to="1021241022#0"/>
    </person>
    <person id="ped171" depart="1176.32" type="ped_pedestrian">
        <walk from="-11176415#1" to="-824149883#0"/>
    </person>
    <person id="ped172" depart="1183.20" type="ped_pedestrian">
        <walk from="1050575235#1" to="584441842"/>
    </person>
    <person id="ped173" depart="1190.08" type="ped_pedestrian">
        <walk from="827754821" to="1050575201#1"/>
    </person>
    <person id="ped174" depart="1196.96" type="ped_pedestrian">
        <walk from="556550806#7" to="146831019#0"/>
    </person>
    <person id="ped175" depart="1203.84" type="ped_pedestrian">
        <walk from="998827551#2" to="556419575#14"/>
    </person>
    <person id="ped176" depart="1210.72" type="ped_pedestrian">
        <walk from="740634262#1" to="-556624783#1"/>
    </person>
    <person id="ped177" depart="1217.60" type="ped_pedestrian">
        <walk from="835163613#1" to="-80664630#6"/>
    </person>
    <person id="ped178" depart="1224.48" type="ped_pedestrian">
        <walk from="80776637#3" to="1050575195#1"/>
    </person>
    <person id="ped179" depart="1231.35" type="ped_pedestrian">
        <walk from="-556624764#1" to="354680398#4"/>
    </person>
    <person id="ped180" depart="1238.23" type="ped_pedestrian">
        <walk from="556826771#1" to="1050575229#1"/>
    </person>
    <person id="ped181" depart="1245.11" type="ped_pedestrian">
        <walk from="556419586#10" to="556419573#1"/>
    </person>
    <person id="ped182" depart="1251.99" type="ped_pedestrian">
        <walk from="146831008#2" to="556419583#2"/>
    </person>
    <person id="ped183" depart="1258.87" type="ped_pedestrian">
        <walk from="1050575190#1" to="556826755#2"/>
    </person>
    <person id="ped184" depart="1265.75" type="ped_pedestrian">
        <walk from="-1003384494#2" to="717076901#1"/>
    </person>
    <person id="ped185" depart="1272.63" type="ped_pedestrian">
        <walk from="556419575#16" to="556826770#1"/>
    </person>
    <person id="ped186" depart="1279.51" type="ped_pedestrian">
        <walk from="556826777#0" to="556624759#5"/>
    </person>
    <person id="ped187" depart="1286.39" type="ped_pedestrian">
        <walk from="1160435050#5" to="-423220347#1"/>
    </person>
    <person id="ped188" depart="1293.27" type="ped_pedestrian">
        <walk from="556624759#0" to="1103397426#1"/>
    </person>
    <person id="ped189" depart="1300.15" type="ped_pedestrian">
        <walk from="1050575229#1" to="574186221#1"/>
    </person>
    <person id="ped190" depart="1307.02" type="ped_pedestrian">
        <walk from="556826770#1" to="1050575214"/>
    </person>
    <person id="ped191" depart="1313.90" type="ped_pedestrian">
        <walk from="1050575227#0" to="210585088#1"/>
    </person>
    <person id="ped192" depart="1320.78" type="ped_pedestrian">
        <walk from="146831019#2" to="1050575212#1"/>
    </person>
    <person id="ped193" depart="1327.66" type="ped_pedestrian">
        <walk from="-556826778#0" to="215885158#12"/>
    </person>
    <person id="ped194" depart="1334.54" type="ped_pedestrian">
        <walk from="750363162" to="556624764#3"/>
    </person>
    <person id="ped195" depart="1341.42" type="ped_pedestrian">
        <walk from="67571406#7" to="556419586#5"/>
    </person>
    <person id="ped196" depart="1348.30" type="ped_pedestrian">
        <walk from="1050575215#1" to="556419575#7"/>
    </person>
    <person id="ped197" depart="1355.18" type="ped_pedestrian">
        <walk from="-1003384494#1" to="1050575205#1"/>
    </person>
    <person id="ped198" depart="1362.06" type="ped_pedestrian">
        <walk from="354680398#0" to="556419583#5"/>
    </person>
    <person id="ped199" depart="1368.94" type="ped_pedestrian">
        <walk from="556550874" to="47026378#6"/>
    </person>
    <person id="ped200" depart="1375.82" type="ped_pedestrian">
        <walk from="354680401" to="1021241020#4"/>
    </person>
    <person id="ped201" depart="1382.69" type="ped_pedestrian">
        <walk from="478555361" to="67571406#6"/>
    </person>
    <person id="ped202" depart="1389.57" type="ped_pedestrian">
        <walk from="564831529#1" to="-750363162"/>
    </person>
    <person id="ped203" depart="1396.45" type="ped_pedestrian">
        <walk from="-47026383#6" to="556419573#12"/>
    </person>
    <person id="ped204" depart="1403.33" type="ped_pedestrian">
        <walk from="556550806#13" to="1109277586#0"/>
    </person>
    <person id="ped205" depart="1410.21" type="ped_pedestrian">
        <walk from="564831546" to="556826782#0"/>
    </person>
    <person id="ped206" depart="1417.09" type="ped_pedestrian">
        <walk from="556624761" to="1021241021#7"/>
    </person>
    <person id="ped207" depart="1423.97" type="ped_pedestrian">
        <walk from="-926665816" to="-11176415#1"/>
    </person>
    <person id="ped208" depart="1430.85" type="ped_pedestrian">
        <walk from="1024966104#3" to="478555364#1"/>
    </person>
    <person id="ped209" depart="1437.73" type="ped_pedestrian">
        <walk from="574186221#2" to="-423220349#1"/>
    </person>
    <person id="ped210" depart="1444.61" type="ped_pedestrian">
        <walk from="215795044#2" to="556550806#0"/>
    </person>
    <person id="ped211" depart="1451.49" type="ped_pedestrian">
        <walk from="-885418652" to="556676148#1"/>
    </person>
    <person id="ped212" depart="1458.36" type="ped_pedestrian">
        <walk from="549743620#17" to="1024966104#2"/>
    </person>
    <person id="ped213" depart="1465.24" type="ped_pedestrian">
        <walk from="556611380#0" to="-1038707887#1"/>
    </person>
    <person id="ped214" depart="1472.12" type="ped_pedestrian">
        <walk from="556826782#0" to="556826814#1"/>
    </person>
    <person id="ped215" depart="1479.00" type="ped_pedestrian">
        <walk from="-556624761" to="215885158#4"/>
    </person>
    <person id="ped216" depart="1485.88" type="ped_pedestrian">
        <walk from="-80664630#11" to="80776632#6"/>
    </person>
    <person id="ped217" depart="1492.76" type="ped_pedestrian">
        <walk from="556419573#14" to="-215671208#2"/>
    </person>
    <person id="ped218" depart="1499.64" type="ped_pedestrian">
        <walk from="1038707887#4" to="574186221#1"/>
    </person>
    <person id="ped219" depart="1506.52" type="ped_pedestrian">
        <walk from="423220349#0" to="564831530#1"/>
    </person>
    <person id="ped220" depart="1513.40" type="ped_pedestrian">
        <walk from="556624759#3" to="998827562#1"/>
    </person>
    <person id="ped221" depart="1520.28" type="ped_pedestrian">
        <walk from="556419584#15" to="80664630#6"/>
    </person>
    <person id="ped222" depart="1527.15" type="ped_pedestrian">
        <walk from="67571406#15" to="556419586#3"/>
    </person>
    <person id="ped223" depart="1534.03" type="ped_pedestrian">
        <walk from="556826770#1" to="549743620#6"/>
    </person>
    <person id="ped224" depart="1540.91" type="ped_pedestrian">
        <walk from="564831555#1" to="556419575#7"/>
    </person>
    <person id="ped225" depart="1547.79" type="ped_pedestrian">
        <walk from="67571406#2" to="556826778#0"/>
    </person>
    <person id="ped226" depart="1554.67" type="ped_pedestrian">
        <walk from="478555364#1" to="1050575191#1"/>
    </person>
    <person id="ped227" depart="1561.55" type="ped_pedestrian">
        <walk from="1038707887#1" to="556550806#4"/>
    </person>
    <person id="ped228" depart="1568.43" type="ped_pedestrian">
        <walk from="556826806#1" to="556419573#16"/>
    </person>
    <person id="ped229" depart="1575.31" type="ped_pedestrian">