<?xml version="1.0" encoding="UTF-8"?>

<!-- generated on 2023-10-10 19:41:18 by Eclipse SUMO duarouter Version 1.12.0
<configuration xmlns:xsi="http://www.w3.org/2001/XMLSchema-instance" xsi:noNamespaceSchemaLocation="http://sumo.dlr.de/xsd/duarouterConfiguration.xsd">

    <input>
        <net-file value="/home/eu/GSD/osmOutputDir/osm.net.xml"/>
        <route-files value="/home/eu/GSD/osmOutputDir/osm.pedestrian.trips.xml"/>
    </input>

    <output>
        <output-file value="/home/eu/GSD/osmOutputDir/osm.pedestrian.rou.xml"/>
        <alternatives-output value="/home/eu/GSD/osmOutputDir/osm.pedestrian.rou.alt.xml"/>
    </output>

    <time>
        <begin value="0"/>
        <end value="3600"/>
    </time>

    <report>
        <no-warnings value="true"/>
        <ignore-errors value="true"/>
        <no-step-log value="true"/>
    </report>

</configuration>
-->

<routes xmlns:xsi="http://www.w3.org/2001/XMLSchema-instance" xsi:noNamespaceSchemaLocation="http://sumo.dlr.de/xsd/routes_file.xsd">
    <vType id="ped_pedestrian" vClass="pedestrian"/>
    <person id="ped0" type="ped_pedestrian" depart="0.00">
        <walk edges="556550806#5 556826770#2 556826770#3 -11176415#4"/>
    </person>
    <person id="ped1" type="ped_pedestrian" depart="6.88">
        <walk edges="1050575198 80776632#5 556826755#2 1050575190#0 1050575190#1 215885158#4 1050575190#3 556826772#1 -215885158#0 -215795044#1 -47026383#7 -47026383#6 -47026383#1 556419583#9 549743620#10 1109277585#1 556550806#8 556419576#12 556419576#13 556419576#14 556550871#1 556550871#0 1021241021#6"/>
    </person>
    <person id="ped2" type="ped_pedestrian" depart="13.76">
        <walk edges="556826772#1 556826771#5 556826771#4 556419583#0 -11176415#1 556826770#0 556419586#4 584447114 584441840#0 146831008#4 146831008#3 146831008#2 146831008#1 146831008#0 354680398#0 354680398#1 354680398#2 354680398#3 354680398#4 354680398#5 354680398#6 354680404#0 67571406#1 67571406#2 564831548 556624764#3"/>
    </person>
    <person id="ped3" type="ped_pedestrian" depart="20.64">
        <walk edges="67571406#16 67571406#17 67571406#18 146831016#1 146831008#7 146831008#6 146831018#0 146831018#1 556826770#0 556826770#1 556826770#2 556419583#2 -215795044#1 -47026383#7"/>
    </person>
    <person id="ped4" type="ped_pedestrian" depart="27.52">
        <walk edges="215885158#13 215885158#12 215885158#9 215885158#7 1050575190#1 215885158#4 1050575190#3 556826772#1 215795044#2 215795044#1 556826814#2 556419584#15 47026383#7 47026383#6 47026383#1 549743620#9 556419584#9 556419584#8 556419576#9 -11181663#1 -11181663#3"/>
    </person>
    <person id="ped5" type="ped_pedestrian" depart="34.40">
        <walk edges="1021241021#3 1021241021#4 1024966100#1 -1109277589#0 -1109277588#2 1109277588#1 556419586#10 549743620#13 556550806#7 549743620#11 556419583#9 549743620#9 549743620#8 549743620#7 549743620#6"/>
    </person>
    <person id="ped6" type="ped_pedestrian" depart="41.27">
        <walk edges="-11177970 -47026378#6 -47026378#5 -47026378#4 -47026378#3 -47026378#1 1021241023#1 549743620#22 1003384494#2 1003384494#1 1024966100#0 549743620#16 146831004 146831008#0 146831008#1 146831008#2 146831008#3 146831008#4 584441840#0 584447114 556419586#4 556826770#0 -11176415#1 556419583#0 556826771#4 -215885158#3 -215885158#4 -215885158#5 -902562650"/>
    </person>
    <person id="ped7" type="ped_pedestrian" depart="48.15">
        <walk edges="556550857#0 556419575#10 -80664630#7 -80664630#6 556419575#5"/>
    </person>
    <person id="ped8" type="ped_pedestrian" depart="55.03">
        <walk edges="1021241021#4 1024966100#1 -1109277589#0 -1109277588#2 1109277588#1 556419586#10 549743620#13 556550806#7 549743620#11 556419583#9 549743620#9 556419584#10 556419584#11"/>
    </person>
    <person id="ped9" type="ped_pedestrian" depart="61.91">
        <walk edges="564831538#1 564831540 67571406#18 146831016#1 146831008#7 146831008#6 146831008#5 146831008#4 478555364#0 478555364#1 564831529#1 564831553 556419586#7 -556624759#0 -1038707887#1"/>
    </person>
    <person id="ped10" type="ped_pedestrian" depart="68.79">
        <walk edges="564831532 564831530#1 564831530#2 67571406#16 67571406#17 67571406#18 146831016#1 146831008#7 146831008#6 146831018#0 146831018#1 556826770#0 556826770#1 556826770#2 556419583#2 -215795044#1 -47026383#7 -47026383#6 -47026383#1 549743620#9 556419584#9 556419584#8 556419584#7 556676148#2"/>
    </person>
    <person id="ped11" type="ped_pedestrian" depart="75.67">
        <walk edges="1109277590#0 1021241019#0 1021241023#1 1021241019#1 1021241018 717076900 717076901#0 -717076902"/>
    </person>
    <person id="ped12" type="ped_pedestrian" depart="82.55">
        <walk edges="80776632#6 215885158#7 1050575190#1 215885158#4 1050575190#3 556826772#1 -215885158#0 -215795044#1 -47026383#7 -47026383#6 -47026383#1 556419583#9 549743620#11 556550806#7 549743620#13 556419586#10 1109277588#1"/>
    </person>
    <person id="ped13" type="ped_pedestrian" depart="89.43">
        <walk edges="-556624738#1 556624738#1 556419599#13 1021241023#0 1109277590#0 1003384494#2 1003384494#1 1109277589#0 1109277588#2 1109277588#1 556419586#10 556419586#9 -556624759#4 -556624759#3 -556624758"/>
    </person>
    <person id="ped14" type="ped_pedestrian" depart="96.31">
        <walk edges="564831564#1 564831560#3 564831560#2 564831560#1 564831557 556419586#0"/>
    </person>
    <person id="ped15" type="ped_pedestrian" depart="103.19">
        <walk edges="564831534 146831006#2 146831006#1 564831530#0 564831530#1 564831530#2 67571406#16 67571406#17 67571406#18 146831016#1 146831008#7 146831008#6 146831018#0 146831018#1 556826770#0 556550806#3 556826771#2"/>
    </person>
    <person id="ped16" type="ped_pedestrian" depart="110.07">
        <walk edges="556419575#14 549743620#5 80664630#11 80664630#10 80664630#9 80664630#7 80664630#6 556419573#17 1050575190#4 1050575190#3 215885158#4 1050575190#1 215885158#7 215885158#9 -215885158#12 889184723#1 889184722#1"/>
    </person>
    <person id="ped17" type="ped_pedestrian" depart="116.94">
        <walk edges="146831006#0 67571406#14 67571406#15 67571406#16 67571406#17 67571406#18 146831016#1 146831008#7 146831008#6 146831018#0 146831018#1 556826770#0 556826770#1 556826770#2 556826770#3 11176415#4 80664630#6 80664630#7 80664630#9 80664630#10 80664630#11 549743620#5 556419575#14 556419575#15 556419575#16 556419576#0"/>
    </person>
    <person id="ped18" type="ped_pedestrian" depart="123.82">
        <walk edges="564831555#0 500079235#3 564831564#1 564831560#3 564831560#2 564831560#1 564831557 556419586#0 556419586#1 556419586#2 556419586#3 556419586#4 556419586#5 556419586#6 556419586#7"/>
    </person>
    <person id="ped19" type="ped_pedestrian" depart="130.70">
        <walk edges="584441841#0 500079235#1 500079235#0 67571406#18 146831016#1 146831008#7 146831008#6 146831018#0 146831018#1 556826770#0 556826770#1 556826770#2 556419583#2"/>
    </person>
    <person id="ped20" type="ped_pedestrian" depart="137.58">
        <walk edges="556826753#1 556826753#0 556826754 556419573#18 556419573#17 80664630#6 80664630#7 80664630#9 80664630#10 556419573#13 549743620#6 556419573#11 556419576#7 -210328290#5 -210328290#4"/>
    </person>
    <person id="ped21" type="ped_pedestrian" depart="144.46">
        <walk edges="1021241022#0 1021241019#1 1021241023#1 549743620#22 1003384494#2 1003384494#1 1024966100#0 549743620#16 146831004 146831008#0 146831008#1 146831008#2 146831008#3 146831008#4 584441840#0 584447114 556419586#4 556826770#0 -1038707887#7 556826817#0 556550806#1 556550806#0 1050575211#1 80776637#2 1050575208 1050575206#2"/>
    </person>
    <person id="ped22" type="ped_pedestrian" depart="151.34">
        <walk edges="-47026378#6 -47026378#5 -47026378#4 -47026378#3 -47026378#1 1021241019#1 1021241022#0 1021241022#1 1021241024#0"/>
    </person>
    <person id="ped23" type="ped_pedestrian" depart="158.22">
        <walk edges="-556624759#2 -556624759#1 556419586#7 556419586#6 556419586#5 556419586#4 556826770#0 -11176415#1 556419583#0 556826771#4 215885158#3 215885158#4 1050575190#1 1050575190#0 556826755#2 80776632#5 556826753#1 1050575200"/>
    </person>
    <person id="ped24" type="ped_pedestrian" depart="165.10">
        <walk edges="556550806#2 556550806#3 556826770#0 556419586#4 584447114 584441840#0 146831008#4 146831008#3 146831008#2 146831008#1 146831008#0 146831004 549743620#16 1024966100#0 1024966100#1 1021241021#4 1160435050#6 1160435050#5"/>
    </person>
    <person id="ped25" type="ped_pedestrian" depart="171.98">
        <walk edges="1193003685#0 -51064594#1 1021241022#0 1021241019#1 1021241023#1 1021241020#0"/>
    </person>
    <person id="ped26" type="ped_pedestrian" depart="178.86">
        <walk edges="1050575196#0 1050575193#2 1050575194#1 1050575212#1 556826816#1 556826816#0 564831557 564831560#1 564831560#2 564831560#3 564831564#1 500079235#3 500079235#2 584441841#0 -423220349#1 -73540498#2 -73540498#1 -73540498#0 73541769#0 73541769#1"/>
    </person>
    <person id="ped27" type="ped_pedestrian" depart="185.74">
        <walk edges="556550856 556419584#10 549743620#9 556419583#9 549743620#10 1109277585#1 556550806#8 556419576#12 556419576#13 556419586#12"/>
    </person>
    <person id="ped28" type="ped_pedestrian" depart="192.61">
        <walk edges="-761391872 -215795055#0 -423220349#1 584441841#1 564831538#1 564831540 67571406#18 146831016#1 146831008#7 146831008#6 146831018#0 146831018#1 556826770#0 556826771#1"/>
    </person>
    <person id="ped29" type="ped_pedestrian" depart="199.49">
        <walk edges="-73540498#2 -423220349#1 584441841#1 564831538#0 564831531 564831530#1 564831532 67571406#14 146831006#0"/>
    </person>
    <person id="ped30" type="ped_pedestrian" depart="206.37">
        <walk edges="998827562#2 -618194914#0 215795055#0 423220349#1 584441841#0 500079235#1 500079235#0 67571406#18 146831016#1 146831008#7 146831008#6 146831018#0 146831018#1 556826770#0 1038707887#4 556550806#6"/>
    </person>
    <person id="ped31" type="ped_pedestrian" depart="213.25">
        <walk edges="556419576#13 556419576#14 556550871#1 556550871#0 1021241021#6 556624783#0"/>
    </person>
    <person id="ped32" type="ped_pedestrian" depart="220.13">
        <walk edges="564831560#4 564831560#3 564831560#2 564831560#1 564831557 556826816#0"/>
    </person>
    <person id="ped33" type="ped_pedestrian" depart="227.01">
        <walk edges="1021241022#1 1021241022#0 1021241019#1 1021241023#1 549743620#22 1003384494#2 1003384494#1 1024966100#0 549743620#16 146831004 146831008#0 146831008#1 146831008#2 146831008#3 146831008#4 584441840#0 584447114 556419586#4 556826770#0 -11176415#1 556419583#0 556826771#4 215885158#3 215885158#4 1050575190#1 1050575190#0 556826755#2 80776632#5 80664630#1 -11192348#0"/>
    </person>
    <person id="ped34" type="ped_pedestrian" depart="233.89">
        <walk edges="1050575230#0 835163612#0 80664630#1 80776632#5 80776632#6 1050575193#2 1050575196#0"/>
    </person>
    <person id="ped36" type="ped_pedestrian" depart="247.65">
        <walk edges="618194912#3 215795055#0 -423220347#0 998827563#1 -423220347#2 11192348#5 1050575215#1 1050575216#1 11192348#2 835163612#1 1050575229#1"/>
    </person>
    <person id="ped37" type="ped_pedestrian" depart="254.53">
        <walk edges="556611380#0 -51064594#1 1021241022#0 1021241019#1 47026378#1 1021241020#2 564831546 67571406#4 67571406#5 67571406#6 67571406#7 67571406#8 67571406#9 67571406#10 146831017#0 146831017#1"/>
    </person>
    <person id="ped38" type="ped_pedestrian" depart="261.40">
        <walk edges="681868490 687411650 681868489#1 -80776632#6 80776632#9 556550806#0 556826816#1 556826816#0 564831557 564831560#1 564831560#2 564831560#3 564831564#1 500079235#3 500079235#2 584441841#0 423220349#1"/>
    </person>
    <person id="ped39" type="ped_pedestrian" depart="268.28">
        <walk edges="1050575194#1 1050575212#1 556826816#1 556826816#0 564831557 564831560#1 564831560#2 564831560#3 564831564#1 500079235#3 500079235#2 584441841#0 -423220349#1 -73540498#2 618194907 1036637089"/>
    </person>
    <person id="ped40" type="ped_pedestrian" depart="275.16">
        <walk edges="556419576#3 556419575#16 556419575#15 556419575#14 549743620#5 80664630#11 80664630#10 80664630#9 80664630#7 80664630#6 556419573#17 1050575190#4 1050575190#3 215885158#4 1050575190#1 215885158#7 1050575193#2"/>
    </person>
    <person id="ped41" type="ped_pedestrian" depart="282.04">
        <walk edges="556419583#8 549743620#11 556550806#7 549743620#13 556419586#10 1109277588#1 1109277588#2 1109277589#0 1024966104#3 549743620#19 146831005#0 146831005#1 354680398#2 354680398#3 354680398#4 354680398#5 354680398#6 354680404#0 67571406#1 67571406#2 67571406#3"/>
    </person>
    <person id="ped42" type="ped_pedestrian" depart="288.92">
        <walk edges="146831019#0 1021241020#3 1021241020#2 1103397426#1 -556624764#0 -556624764#1 -556624764#3 556624764#4 556624764#5 1003384494#2 -1003384494#1 1024966104#2 1021241021#3"/>
    </person>
    <person id="ped43" type="ped_pedestrian" depart="295.80">
        <walk edges="998827570#0 73538114#0 1050575206#2 1050575208 80776637#2 1050575211#1 556550806#0 556550806#1 1050575202 1050575201#1 -215885158#5 -215885158#4 -215885158#3 556826771#4 556419583#0 556419583#1 556419583#2 -215795044#1 -47026383#7 -47026383#6 -47026383#1 549743620#9"/>
    </person>
    <person id="ped44" type="ped_pedestrian" depart="302.68">
        <walk edges="-556611380#0 1193003685#1 1021241024#0 1021241024#1 1021241021#0 1021241021#1 1021241021#2 1021241021#3 1021241021#4 1021241021#5 1021241021#6 556550871#0 556550871#1 556419576#14 556419576#13 556419576#12 556419576#11 556419576#10 556419576#9 556419576#8 556419576#7 -210328290#5"/>
    </person>
    <person id="ped45" type="ped_pedestrian" depart="309.56">
        <walk edges="-556624764#3 556624764#4 556624764#5 1003384494#2 1003384494#1 1109277589#0 1109277588#2 1109277588#1 556419586#11 556419586#12 556419599#5"/>
    </person>
    <person id="ped46" type="ped_pedestrian" depart="316.44">
        <walk edges="564831525 564831521#2 67571406#6 67571406#7 67571406#8 67571406#9 67571406#10 146831017#0 146831017#1 -73540498#1 -73540498#2 -423220347#0 998827563#1 -423220347#2 11192348#5 1050575215#1 998827553#0 215885158#13"/>
    </person>
    <person id="ped47" type="ped_pedestrian" depart="323.32">
        <walk edges="-215885158#4 -215885158#5 1050575201#1 1050575202 556826817#0 556826817#1 1050575203 564831555#4 146831008#7 146831016#1 67571406#18 67571406#17 67571406#16 564831530#2 564831530#1 564831530#0 146831006#1 146831006#2"/>
    </person>
    <person id="ped48" type="ped_pedestrian" depart="330.20">
        <walk edges="998827569#1 11192348#5 1050575215#1 1050575216#1 11192348#2 1050575228#0 556419575#0"/>
    </person>
    <person id="ped49" type="ped_pedestrian" depart="337.07">
        <walk edges="835163613#1 80664630#1 80776632#5 556826755#2 1050575190#0 1050575190#1 215885158#4 215885158#3 556826771#4 556419583#0 -11176415#1 556826770#0 146831018#1 584441840#1"/>
    </person>
    <person id="ped50" type="ped_pedestrian" depart="343.95">
        <walk edges="-1050575234#1 -47026382#1 80664630#1 80776632#5 556826755#2 1050575190#0 1050575190#1 215885158#4 215885158#3 556826771#4 556419583#0 556419583#1 556826770#2"/>
    </person>
    <person id="ped51" type="ped_pedestrian" depart="350.83">
        <walk edges="556624782#1 1021241021#8 1021241021#7 556550871#0 556550871#1 556419576#14 556419576#13 556419576#12 556550806#8 1109277585#1 549743620#10 556419583#9 549743620#9 549743620#8 549743620#7 556419573#12 549743620#5 556419575#14"/>
    </person>
    <person id="ped52" type="ped_pedestrian" depart="357.71">
        <walk edges="1050575196#0 1050575193#2 215885158#7 1050575190#1 215885158#4 1050575190#3 556826772#1 -215885158#0 -215795044#1 -47026383#7 556826815#0 556419583#5 -556826775#1 556550806#6"/>
    </person>
    <person id="ped53" type="ped_pedestrian" depart="364.59">
        <walk edges="-556624764#4 556624764#5 549743620#21 564831549 67571406#1 354680404#0 354680398#6 354680398#5 354680398#4"/>
    </person>
    <person id="ped54" type="ped_pedestrian" depart="371.47">
        <walk edges="423220347#0 423220349#1 584441841#0 500079235#2 500079235#3 564831564#1 564831560#3 564831560#2 564831560#1 564831557 556826816#0 556826816#1 1050575212#1 1050575194#1 80776632#6 80776632#5 80776632#1 80776632#0"/>
    </person>
    <person id="ped55" type="ped_pedestrian" depart="378.35">
        <walk edges="618194912#3 215795055#0 423220349#1 584441841#0 500079235#2 500079235#3 564831564#1 564831560#3 564831560#2 564831560#1 564831557 556826816#0 556826816#1 1050575212#1 1050575194#1 1050575193#2"/>
    </person>
    <person id="ped56" type="ped_pedestrian" depart="385.23">
        <walk edges="549743620#21 549743620#20 549743620#19 1024966104#3 1109277589#0 1109277588#2 1109277588#1 556419586#10 549743620#13 556550806#7 549743620#11 556419583#9 549743620#9 549743620#8 549743620#7 556419573#13 80664630#10 80664630#9 -80664630#7 -80664630#6"/>
    </person>
    <person id="ped57" type="ped_pedestrian" depart="392.11">
        <walk edges="681868488 684999227 681868489#1 -80776632#6 80776632#9 556550806#0 556826816#1 556826816#0 564831557 564831560#1 564831560#2 564831560#3 564831564#1 500079235#3 500079235#2 584441841#0 -423220349#1 -73540498#2 618194907 618194906"/>
    </person>
    <person id="ped58" type="ped_pedestrian" depart="398.99">
        <walk edges="1050575213#1 215885158#9 215885158#7 1050575190#1 215885158#4 215885158#3 556826771#4 556419583#0 11176415#1 556550806#4 556550806#5"/>
    </person>
    <person id="ped59" type="ped_pedestrian" depart="405.87">
        <walk edges="556419586#12 556419586#11 556419586#10 556419586#9 556419586#8 556419586#7 564831553 564831529#1 478555364#1 478555364#0 146831008#4 146831008#5 146831008#6 146831008#7 146831016#1 67571406#18 500079235#0 500079235#1 584441841#0 423220349#1 -423220347#0 -618194914#1"/>
    </person>
    <person id="ped60" type="ped_pedestrian" depart="412.74">
        <walk edges="556826787 556419575#7 -80664630#7 -80664630#9 -80664630#10 -80664630#11 549743620#5 556419575#14 556419575#15 556419575#16"/>
    </person>
    <person id="ped61" type="ped_pedestrian" depart="419.62">
        <walk edges="556826817#0 1050575202 1050575192#1 80776632#6 80776632#5 556419575#2 556419575#1"/>
    </person>
    <person id="ped62" type="ped_pedestrian" depart="426.50">
        <walk edges="-1003384494#1 1024966100#0 549743620#16 146831004 146831008#0 146831008#1 146831008#2 146831008#3 146831008#4 584441840#0 584447114 556419586#4 556826770#0 -11176415#1 556419583#0 556826771#4 215885158#3 215885158#4 1050575190#1 1050575190#0 556826755#2 80776632#5 80664630#1 1050575228#1 1050575233#4 1050575233#3 1050575234#0"/>
    </person>
    <person id="ped63" type="ped_pedestrian" depart="433.38">
        <walk edges="-1109277588#1 556419586#10 549743620#13 -1038707887#1 -1038707887#4 -1038707887#7 556826817#0 556550806#1 556550806#0 1050575211#1 80776637#2 1050575208 1050575206#2 73538114#0 73538114#1"/>
    </person>
    <person id="ped64" type="ped_pedestrian" depart="440.26">
        <walk edges="618194914#0 215795055#0 423220349#1 584441841#0 500079235#2 500079235#3 564831564#1 564831560#3 564831560#2 564831560#1 564831557 564831555#2"/>
    </person>
    <person id="ped65" type="ped_pedestrian" depart="447.14">
        <walk edges="1050575220#1 835163613#1 80664630#1 80776632#5 556826755#2 1050575190#0 1050575190#1 215885158#4 1050575190#3 556826772#1 -215885158#0"/>
    </person>
    <person id="ped66" type="ped_pedestrian" depart="454.02">
        <walk edges="618194914#0 215795055#0 423220349#1 584441841#0 500079235#1 500079235#0 67571406#18 146831016#1 146831008#7 146831008#6 146831018#0 146831018#1 556826770#0 556826770#1 556826770#2 556826770#3 11176415#4 80664630#6 80664630#7 80664630#9 80664630#10 80664630#11"/>
    </person>
    <person id="ped67" type="ped_pedestrian" depart="460.90">
        <walk edges="-47026383#6 -47026383#1 556419583#9 549743620#10"/>
    </person>
    <person id="ped68" type="ped_pedestrian" depart="467.78">
        <walk edges="-423220347#1 423220347#2 1050575206#2 1050575208 80776637#2 1050575211#1 556550806#0 556550806#1 1050575202 1050575201#1 -215885158#5 -215885158#4 1050575190#3 1050575190#4 556826786#0 556826786#1"/>
    </person>
    <person id="ped69" type="ped_pedestrian" depart="474.66">
        <walk edges="556826806#1 80664630#10 556826781#0 -556826780#1 556419584#13 556826815#1 -47026383#7 -556826779#0"/>
    </person>
    <person id="ped70" type="ped_pedestrian" depart="481.54">
        <walk edges="478555364#1 564831527 556419586#5 556419586#4 556826770#0 556826770#1 556826770#2 556826770#3 11176415#4 -80664630#6 556419575#8"/>
    </person>
    <person id="ped71" type="ped_pedestrian" depart="488.41">
        <walk edges="1050575194#1 1050575212#1 556826816#1 556826816#0 564831557 564831560#1 564831560#2 564831560#3 564831564#1 500079235#3 500079235#2 584441841#0 -423220349#1 -73540498#2 618194907"/>
    </person>
    <person id="ped72" type="ped_pedestrian" depart="495.29">
        <walk edges="215885158#3 556826771#4 556419583#0 -11176415#1 556826770#0 556419586#4 584447114 584441840#0 146831008#4 146831008#3 146831008#2 146831008#1 146831008#0 354680398#0 354680398#1 354680398#2 354680398#3 354680398#4 354680398#5 354680398#6 354680404#0 67571406#1 67571406#2 564831548 -556624764#1 -556624764#0 1103397426#1 1021241020#2"/>
    </person>
    <person id="ped73" type="ped_pedestrian" depart="502.17">
        <walk edges="556419575#16 556419575#15 556419575#14 549743620#5 80664630#11 80664630#10 80664630#9 80664630#7 80664630#6 11176415#4 556826770#3 556419583#1 556419583#0 556826771#3 556826771#2"/>
    </person>
    <person id="ped74" type="ped_pedestrian" depart="509.05">
        <walk edges="1003384494#1 1024966100#0 549743620#16 146831004 146831008#0 146831008#1 146831008#2 146831008#3 146831008#4 584441840#0 584447114 556419586#4 556826770#0 -11176415#1 556419583#0 556826771#4 215885158#3 215885158#4 1050575190#1 1050575190#0 556826755#2 80776632#5 80664630#1 1050575228#0"/>
    </person>
    <person id="ped75" type="ped_pedestrian" depart="515.93">
        <walk edges="998827564#2 -73538114#1 73538114#0 1050575206#2 1050575208 80776637#2 1050575211#1 556550806#0 556550806#1 1050575202 1050575201#1 -215885158#5 -215885158#4 1050575190#3 1050575190#4 556419573#17 -80664630#6 -80664630#7 556419575#10 556550857#0"/>
    </person>
    <person id="ped76" type="ped_pedestrian" depart="522.81">
        <walk edges="354680398#6 354680398#5 354680398#4 354680398#3 354680398#2 146831005#1 146831005#0 549743620#19 1024966104#3 1109277589#0 1109277588#2 1109277588#1 556419586#10 549743620#13 556550806#7 549743620#11 556419583#9 549743620#9 549743620#8 549743620#7 556419573#13 556419573#14"/>
    </person>
    <person id="ped77" type="ped_pedestrian" depart="529.69">
        <walk edges="-556826763#0 556826761#1 556826761#2 556826761#3 556826753#0 556826755#1 556826755#2 1050575190#0 1050575190#1 215885158#4 1050575190#3 556826772#1 -215885158#0 -215795044#1 -47026383#7 -47026383#6 -47026383#1 556419583#9 549743620#10 1109277585#1 556550806#8 556419576#12 556419576#13 556419576#14 556550871#1 556550871#0 1021241021#7"/>
    </person>
    <person id="ped78" type="ped_pedestrian" depart="536.57">
        <walk edges="1109277588#2 1109277588#1 556419586#10 549743620#13 556550806#7 549743620#11 556419583#9 549743620#9 556419584#10"/>
    </person>
    <person id="ped79" type="ped_pedestrian" depart="543.45">
        <walk edges="1021241022#1 1021241024#0 1021241024#1 1021241021#0 1021241021#1 1021241021#2 1021241021#3 1021241021#4"/>
    </person>
    <person id="ped80" type="ped_pedestrian" depart="550.33">
        <walk edges="-423220347#2 1050575206#2 1050575208 80776637#2 1050575211#1 556550806#0 556550806#1"/>
    </person>
    <person id="ped81" type="ped_pedestrian" depart="557.21">
        <walk edges="1021241022#1 1021241022#0 1021241019#1 47026378#1 1021241020#2 564831546 67571406#4 67571406#5 67571406#6 67571406#7 67571406#8 67571406#9"/>
    </person>
    <person id="ped82" type="ped_pedestrian" depart="564.08">
        <walk edges="584441840#1 146831018#1 556419586#3 556419586#2 556419586#1 556419586#0 564831555#1 564831558#1 -423220347#2"/>
    </person>
    <person id="ped83" type="ped_pedestrian" depart="570.96">
        <walk edges="1024966100#2 1024966100#1 -1109277589#0 -1109277588#2 1109277588#1 556419586#10 556419586#9 556624759#4"/>
    </person>
    <person id="ped84" type="ped_pedestrian" depart="577.84">
        <walk edges="1021241020#4 146831019#1 146831019#2 146831019#3 564831523#1 478555361 67571406#9 584441842 67571406#12 67571406#13 67571406#14 67571406#15 67571406#16 67571406#17 67571406#18 146831016#1 146831008#7 146831008#6 146831018#0 146831018#1 556826770#0 556826770#1 556826770#2 556419583#2 -215795044#1 -47026383#7 556826815#1 556419584#13 -556826780#1"/>
    </person>
    <person id="ped85" type="ped_pedestrian" depart="584.72">
        <walk edges="73541769#0 -73540498#0 146831017#1 146831017#0 67571406#11 67571406#12 67571406#13 67571406#14 67571406#15 67571406#16 67571406#17 67571406#18 146831016#1 146831008#7 146831008#6 146831018#0 146831018#1 556826770#0 556826770#1 556826770#2 556419583#2 -215795044#1 -47026383#7 -47026383#6 -47026383#1 556419583#9 549743620#10 556419583#10 556419583#11"/>
    </person>
    <person id="ped86" type="ped_pedestrian" depart="591.60">
        <walk edges="478555361 564831523#4 564831522"/>
    </person>
    <person id="ped87" type="ped_pedestrian" depart="598.48">
        <walk edges="564831534 564831538#0 584441841#1 -423220349#1 423220347#0 423220347#1 423220347#2 -80776637#3 -80776637#2"/>
    </person>
    <person id="ped88" type="ped_pedestrian" depart="605.36">
        <walk edges="-556624758 -556624759#2 -556624759#1 556419586#7 564831553 564831529#1 564831529#2 564831528 146831008#2 146831008#1 146831008#0 354680398#0 354680398#1"/>
    </person>
    <person id="ped89" type="ped_pedestrian" depart="612.24">
        <walk edges="215885158#3 215885158#4 1050575190#1 1050575190#0 556826755#2 80776632#5 80664630#1 47026382#1"/>
    </person>
    <person id="ped90" type="ped_pedestrian" depart="619.12">
        <walk edges="556826771#1 556826770#0 556419586#4 584447114 584441840#0 146831008#4 146831008#3 146831008#2 146831008#1 146831008#0 146831004 549743620#16 1024966100#0 1003384494#1 1003384494#2 556624764#5 556624761"/>
    </person>
    <person id="ped91" type="ped_pedestrian" depart="626.00">
        <walk edges="998827553#0 1050575215#1 1050575214 1050575212#2 1050575195#1 -215885158#7 -215885158#5 -215885158#4 -215885158#3 556826771#4 556419583#0 -11176415#1 556826770#0 556419586#4 556419586#5 556419586#6 556419586#7 -556624759#0"/>
    </person>
    <person id="ped92" type="ped_pedestrian" depart="632.87">
        <walk edges="146831019#2 564831521#0 564831521#1 564831525 67571406#4 67571406#3 67571406#2 67571406#1 354680404#0 354680398#6 354680398#5 354680398#4 354680398#3 354680398#2 146831005#1 146831005#0 549743620#19 1024966104#3 1109277589#0"/>
    </person>
    <person id="ped93" type="ped_pedestrian" depart="639.75">
        <walk edges="584441841#0 500079235#1 500079235#0 67571406#18 146831016#1 146831008#7 146831008#6 146831018#0 146831018#1 556826770#0 1038707887#4"/>
    </person>
    <person id="ped94" type="ped_pedestrian" depart="646.63">
        <walk edges="-80776637#2 -80776637#1 556826816#0 556419586#0 556419586#1 556419586#2 556419586#3 556419586#4 584447114 584441840#0 146831008#4 146831008#3 146831008#2 564831551#0 584441839 354680399#1 354680403#1 354680403#2"/>
    </person>
    <person id="ped95" type="ped_pedestrian" depart="653.51">
        <walk edges="215885158#13 215885158#12 215885158#9 1050575192#1 1050575201#1"/>
    </person>
    <person id="ped96" type="ped_pedestrian" depart="660.39">
        <walk edges="1038707887#7 556826770#0 556419586#4 584447114 584441840#0 146831008#4 146831008#3 146831008#2 146831008#1 146831008#0 146831004 549743620#16 1024966100#0 1003384494#1 1003384494#2 549743620#22 1021241023#1 1021241019#1 1021241018 717076900"/>
    </person>
    <person id="ped97" type="ped_pedestrian" depart="667.27">
        <walk edges="354680401 354680398#3 354680398#2 354680398#1 354680398#0 146831008#0 146831008#1 146831008#2 146831008#3 146831008#4 146831008#5 146831008#6 146831008#7 146831016#1 67571406#18 500079235#0 500079235#1 584441841#0"/>
    </person>
    <person id="ped98" type="ped_pedestrian" depart="674.15">
        <walk edges="556419575#9 80664630#9 80664630#10 556419573#13 549743620#7 549743620#8 549743620#9 556419583#9 549743620#11 556550806#7 549743620#13 556419586#10 1109277588#1 1109277588#2 1109277589#0 1003384494#1 1003384494#2 1109277590#0 1021241023#0 1021241024#1 -215671208#2"/>
    </person>
    <person id="ped99" type="ped_pedestrian" depart="681.03">
        <walk edges="998827570#1 -73538114#0 564831558#1 564831558#0 564831560#5 564831557"/>
    </person>
    <person id="ped100" type="ped_pedestrian" depart="687.91">
        <walk edges="835163612#1 80664630#1 80776632#5 556826755#2 1050575190#0 1050575190#1 215885158#4 215885158#3 556826771#4 556419583#0 -11176415#1 556826770#0 556419586#4 584447114 584441840#0 146831008#4 146831008#3 146831008#2 146831008#1 146831008#0 146831004 549743620#16 1024966100#0 1003384494#1 1003384494#2 549743620#22 1021241023#1 1021241019#1 1021241018 717076900 717076901#0 -717076902 717076902"/>
    </person>
    <person id="ped101" type="ped_pedestrian" depart="694.79">
        <walk edges="574186221#1 -618194901#2 -618194901#1 -73541769#0 -73541769#5"/>
    </person>
    <person id="ped102" type="ped_pedestrian" depart="701.67">