<?xml version="1.0" encoding="UTF-8"?>

<!-- generated on 2023-10-10 19:41:15 by Eclipse SUMO netconvert Version 1.12.0
<configuration xmlns:xsi="http://www.w3.org/2001/XMLSchema-instance" xsi:noNamespaceSchemaLocation="http://sumo.dlr.de/xsd/netconvertConfiguration.xsd">

    <input>
        <type-files value="/usr/share/sumo/data/typemap/osmNetconvert.typ.xml,/usr/share/sumo/data/typemap/osmNetconvertUrbanDe.typ.xml,/usr/share/sumo/data/typemap/osmNetconvertPedestrians.typ.xml,/usr/share/sumo/data/typemap/osmNetconvertBicycle.typ.xml"/>
        <osm-files value="osm_bbox.osm.xml"/>
    </input>

    <output>
        <output-file value="osm.net.xml"/>
        <output.street-names value="true"/>
        <output.original-names value="true"/>
    </output>

    <projection>
        <proj.utm value="true"/>
    </projection>

    <processing>
        <geometry.remove value="true"/>
        <roundabouts.guess value="true"/>
    </processing>

    <tls_building>
        <tls.discard-simple value="true"/>
        <tls.join value="true"/>
        <tls.guess-signals value="true"/>
        <tls.default-type value="actuated"/>
    </tls_building>

    <ramp_guessing>
        <ramps.guess value="true"/>
    </ramp_guessing>

    <junctions>
        <junctions.join value="true"/>
        <junctions.corner-detail value="5"/>
    </junctions>

    <pedestrian>
        <crossings.guess value="true"/>
    </pedestrian>

    <formats>
        <osm.bike-access value="true"/>
        <osm.sidewalks value="true"/>
    </formats>

    <report>
        <verbose value="true"/>
        <aggregate-warnings value="5"/>
    </report>

</configuration>
-->

<net version="1.9" junctionCornerDetail="5" walkingareas="true" limitTurnSpeed="5.50" xmlns:xsi="http://www.w3.org/2001/XMLSchema-instance" xsi:noNamespaceSchemaLocation="http://sumo.dlr.de/xsd/net_file.xsd">

    <location netOffset="-462551.28,-3156586.18" convBoundary="0.00,0.00,1723.45,1332.37" origBoundary="-81.382808,28.535533,-81.365188,28.547575" projParameter="+proj=utm +zone=17 +ellps=WGS84 +datum=WGS84 +units=m +no_defs"/>

    <type id="cycleway.lane" allow="bicycle" bikeLaneWidth="1.00"/>
    <type id="cycleway.lane|highway.primary" priority="12" numLanes="2" speed="13.89" disallow="pedestrian tram rail_urban rail rail_electric rail_fast ship" oneway="0" sidewalkWidth="3.00" bikeLaneWidth="1.00"/>
    <type id="cycleway.opposite_lane" allow="bicycle" bikeLaneWidth="1.00"/>
    <type id="cycleway.opposite_track" allow="bicycle" bikeLaneWidth="1.50"/>
    <type id="cycleway.track" allow="bicycle" bikeLaneWidth="1.50"/>
    <type id="highway.bridleway" priority="1" numLanes="1" speed="2.78" allow="pedestrian" oneway="1" width="2.00"/>
    <type id="highway.bus_guideway" priority="1" numLanes="1" speed="13.89" allow="bus" oneway="1"/>
    <type id="highway.cycleway" priority="1" numLanes="1" speed="8.33" allow="bicycle" oneway="0" width="1.00"/>
    <type id="highway.footway" priority="1" numLanes="1" speed="2.78" allow="pedestrian" oneway="1" width="2.00"/>
    <type id="highway.ford" priority="1" numLanes="1" speed="2.78" allow="army" oneway="0"/>
    <type id="highway.living_street" priority="2" numLanes="1" speed="2.78" disallow="tram rail_urban rail rail_electric rail_fast ship" oneway="0"/>
    <type id="highway.motorway" priority="14" numLanes="2" speed="27.78" allow="private emergency authority army vip passenger hov taxi bus coach delivery truck trailer motorcycle evehicle custom1 custom2" oneway="1"/>
    <type id="highway.motorway_link" priority="9" numLanes="1" speed="16.67" allow="private emergency authority army vip passenger hov taxi bus coach delivery truck trailer motorcycle evehicle custom1 custom2" oneway="1"/>
    <type id="highway.path" priority="1" numLanes="1" speed="2.78" allow="pedestrian bicycle" oneway="0" width="2.00"/>
    <type id="highway.pedestrian" priority="1" numLanes="1" speed="2.78" allow="pedestrian" oneway="1" width="2.00"/>
    <type id="highway.primary" priority="12" numLanes="2" speed="13.89" disallow="pedestrian tram rail_urban rail rail_electric rail_fast ship" oneway="0" sidewalkWidth="3.00"/>
    <type id="highway.primary_link" priority="7" numLanes="1" speed="13.89" disallow="pedestrian tram rail_urban rail rail_electric rail_fast ship" oneway="0" sidewalkWidth="3.00"/>
    <type id="highway.raceway" priority="15" numLanes="2" speed="83.33" allow="vip" oneway="0"/>
    <type id="highway.residential" priority="3" numLanes="1" speed="13.89" disallow="pedestrian tram rail_urban rail rail_electric rail_fast ship" oneway="0" sidewalkWidth="2.00"/>
    <type id="highway.secondary" priority="11" numLanes="1" speed="13.89" disallow="pedestrian tram rail_urban rail rail_electric rail_fast ship" oneway="0" sidewalkWidth="3.00"/>
    <type id="highway.secondary_link" priority="6" numLanes="1" speed="13.89" disallow="pedestrian tram rail_urban rail rail_electric rail_fast ship" oneway="0" sidewalkWidth="3.00"/>
    <type id="highway.service" priority="1" numLanes="1" speed="5.56" allow="pedestrian delivery bicycle" oneway="0"/>
    <type id="highway.stairs" priority="1" numLanes="1" speed="1.39" allow="pedestrian" oneway="1" width="2.00"/>
    <type id="highway.step" priority="1" numLanes="1" speed="1.39" allow="pedestrian" oneway="1" width="2.00"/>
    <type id="highway.steps" priority="1" numLanes="1" speed="1.39" allow="pedestrian" oneway="1" width="2.00"/>
    <type id="highway.tertiary" priority="10" numLanes="1" speed="13.89" disallow="pedestrian tram rail_urban rail rail_electric rail_fast ship" oneway="0" sidewalkWidth="3.00"/>
    <type id="highway.tertiary_link" priority="5" numLanes="1" speed="13.89" disallow="pedestrian tram rail_urban rail rail_electric rail_fast ship" oneway="0" sidewalkWidth="2.00"/>
    <type id="highway.track" priority="1" numLanes="1" speed="5.56" allow="pedestrian motorcycle moped bicycle" oneway="0"/>
    <type id="highway.trunk" priority="13" numLanes="2" speed="13.89" disallow="pedestrian bicycle tram rail_urban rail rail_electric rail_fast ship" oneway="0"/>
    <type id="highway.trunk_link" priority="8" numLanes="1" speed="13.89" disallow="pedestrian bicycle tram rail_urban rail rail_electric rail_fast ship" oneway="0"/>
    <type id="highway.unclassified" priority="4" numLanes="1" speed="13.89" disallow="pedestrian tram rail_urban rail rail_electric rail_fast ship" oneway="0" sidewalkWidth="2.00"/>
    <type id="highway.unsurfaced" priority="1" numLanes="1" speed="8.33" disallow="tram rail_urban rail rail_electric rail_fast ship" oneway="0"/>
    <type id="railway.highspeed" priority="21" numLanes="1" speed="69.44" allow="rail_fast" oneway="1"/>
    <type id="railway.light_rail" priority="19" numLanes="1" speed="27.78" allow="rail_urban" oneway="1"/>
    <type id="railway.preserved" priority="16" numLanes="1" speed="27.78" allow="rail" oneway="1"/>
    <type id="railway.rail" priority="20" numLanes="1" speed="44.44" allow="rail" oneway="1"/>
    <type id="railway.subway" priority="18" numLanes="1" speed="27.78" allow="rail_urban" oneway="1"/>
    <type id="railway.tram" priority="17" numLanes="1" speed="13.89" allow="tram" oneway="1"/>

    <edge id=":10005247086_0" function="internal">
        <lane id=":10005247086_0_0" index="0" allow="pedestrian delivery bicycle" speed="5.56" length="5.04" shape="626.94,620.64 626.96,625.68"/>
    </edge>
    <edge id=":10005247086_w0" function="walkingarea">
        <lane id=":10005247086_w0_0" index="0" allow="pedestrian" speed="1.00" length="4.55" width="3.20" shape="625.36,625.68 628.56,625.67 630.05,624.19 630.07,622.19 628.54,620.63 625.34,620.64 623.85,622.13 623.83,624.13 625.32,625.19 625.20,624.80 625.00,624.50 624.71,624.30 624.32,624.17"/>
    </edge>
    <edge id=":1411916029_0" function="internal">
        <lane id=":1411916029_0_0" index="0" allow="delivery bicycle" speed="5.67" length="6.64" shape="622.28,815.76 620.91,816.05 619.93,816.99 619.34,818.55 619.13,820.75"/>
    </edge>
    <edge id=":1411916029_1" function="internal">
        <lane id=":1411916029_1_0" index="0" disallow="pedestrian tram rail_urban rail rail_electric rail_fast ship" speed="13.89" length="6.46" shape="622.28,815.76 620.41,815.98 619.18,816.52 617.94,817.06 616.07,817.29"/>
    </edge>
    <edge id=":1411916029_c0" function="crossing" crossingEdges="11202155#2">
        <lane id=":1411916029_c0_0" index="0" allow="pedestrian" speed="1.00" length="3.20" width="4.00" shape="620.30,814.13 620.26,817.33"/>
    </edge>
    <edge id=":1411916029_w0" function="walkingarea">
        <lane id=":1411916029_w0_0" index="0" allow="pedestrian" speed="1.00" length="4.05" width="4.00" shape="616.05,818.89 616.03,820.89 617.53,820.75 620.73,820.76 622.24,819.36 622.26,817.36 620.91,817.46 619.94,817.74 619.16,818.12 618.37,818.50 617.40,818.78"/>
    </edge>
    <edge id=":1411916029_w1" function="walkingarea">
        <lane id=":1411916029_w1_0" index="0" allow="pedestrian" speed="1.00" length="4.24" width="4.00" shape="622.30,814.16 616.10,813.69 616.08,815.69 617.43,815.58 618.41,815.30 619.19,814.92 619.98,814.54 620.95,814.26"/>
    </edge>
    <edge id=":1600625360_w0" function="walkingarea">
        <lane id=":1600625360_w0_0" index="0" allow="pedestrian" speed="1.00" length="3.38" width="2.00" shape="965.37,750.51 965.41,748.51 963.90,749.00 961.90,748.99 960.38,748.42 960.35,750.42 961.77,751.95 963.77,752.05 964.87,750.54 964.47,750.66 964.17,750.86 963.96,751.15 963.83,751.55"/>
    </edge>
    <edge id=":1600625362_w0" function="walkingarea">
        <lane id=":1600625362_w0_0" index="0" allow="pedestrian" speed="1.00" length="4.01" width="2.00" shape="961.26,764.73 963.26,764.72 963.37,759.83 961.38,759.73 959.80,761.19 959.75,763.19 961.22,764.24 961.11,763.86 960.91,763.57 960.62,763.36 960.24,763.24"/>
    </edge>
    <edge id=":1600625392_w0" function="walkingarea">
        <lane id=":1600625392_w0_0" index="0" allow="pedestrian" speed="1.00" length="5.36" width="2.00" shape="806.46,773.19 805.97,771.25 799.94,771.01 799.68,772.99 799.21,773.66 799.94,775.53 805.04,773.57 804.00,773.90 803.15,774.21 802.32,774.55 801.31,774.97"/>
    </edge>
    <edge id=":1600625398_w0" function="walkingarea">
        <lane id=":1600625398_w0_0" index="0" allow="pedestrian" speed="1.00" length="6.05" width="2.00" shape="973.94,782.19 974.66,780.32 968.65,775.96 967.37,777.50 967.08,778.06 966.55,779.99 972.40,781.62 971.25,781.23 970.29,780.95 969.32,780.71 968.14,780.41"/>
    </edge>
    <edge id=":1600625410_w0" function="walkingarea">
        <lane id=":1600625410_w0_0" index="0" allow="pedestrian" speed="1.00" length="5.20" width="2.00" shape="775.16,789.97 773.97,788.36 773.26,787.83 771.37,787.17 768.78,792.37 770.10,793.87"/>
    </edge>
    <edge id=":1600625459_w0" function="walkingarea">
        <lane id=":1600625459_w0_0" index="0" allow="pedestrian" speed="1.00" length="4.06" width="2.00" shape="688.16,880.68 688.04,878.69 686.55,877.28 684.55,877.27 684.50,882.26 686.50,882.28 687.64,880.75 687.22,880.87 686.90,881.08 686.68,881.37 686.55,881.77"/>
    </edge>
    <edge id=":1600625461_w0" function="walkingarea">
        <lane id=":1600625461_w0_0" index="0" allow="pedestrian" speed="1.00" length="4.09" width="2.00" shape="709.35,877.64 707.81,876.37 704.54,877.66 704.66,879.66 705.93,881.05 707.90,881.36 708.82,878.31 708.48,878.85 708.26,879.34 708.13,879.86 708.03,880.51"/>
    </edge>
    <edge id=":1600625468_w0" function="walkingarea">
        <lane id=":1600625468_w0_0" index="0" allow="pedestrian" speed="1.00" length="4.95" width="2.00" shape="1158.39,903.59 1160.07,902.52 1161.66,900.12 1160.81,898.31 1160.11,896.85 1158.21,896.25 1157.25,896.27 1155.37,896.94 1157.57,902.26 1157.01,901.26 1156.60,900.40 1156.26,899.51 1155.88,898.41"/>
    </edge>
    <edge id=":1600625470_w0" function="walkingarea">
        <lane id=":1600625470_w0_0" index="0" allow="pedestrian" speed="1.00" length="4.03" width="2.00" shape="687.72,913.23 687.77,911.23 686.25,909.69 684.25,909.68 684.21,914.67 686.21,914.69 687.25,913.25 686.86,913.36 686.57,913.56 686.37,913.84 686.25,914.22"/>
    </edge>
    <edge id=":1600625473_w0" function="walkingarea">
        <lane id=":1600625473_w0_0" index="0" allow="pedestrian" speed="1.00" length="4.54" width="2.00" shape="700.32,913.42 700.29,911.42 694.84,911.38 694.80,913.38 695.37,914.58 696.93,915.83 699.44,913.50 698.81,913.70 698.33,914.03 697.92,914.49 697.49,915.09"/>
    </edge>
    <edge id=":1600625505_w0" function="walkingarea">
        <lane id=":1600625505_w0_0" index="0" allow="pedestrian" speed="1.00" length="4.10" width="2.00" shape="1194.08,940.98 1196.03,940.56 1197.22,939.00 1197.09,937.01 1194.81,935.69 1192.89,936.25"/>
    </edge>
    <edge id=":1600625546_w0" function="walkingarea">
        <lane id=":1600625546_w0_0" index="0" allow="pedestrian" speed="1.00" length="4.69" width="2.00" shape="732.46,973.70 734.28,972.86 733.60,967.80 731.60,967.82 730.55,968.28 729.15,969.71 731.97,972.71 731.54,972.02 731.10,971.50 730.60,971.03 729.97,970.47"/>
    </edge>
    <edge id=":1600625549_w0" function="walkingarea">
        <lane id=":1600625549_w0_0" index="0" allow="pedestrian" speed="1.00" length="4.03" width="2.00" shape="1199.52,982.50 1199.50,980.50 1198.01,979.02 1196.01,979.00 1195.98,984.00 1197.98,984.02 1199.03,982.54 1198.64,982.66 1198.34,982.86 1198.14,983.14 1198.02,983.53"/>
    </edge>
    <edge id=":1600625585_w0" function="walkingarea">
        <lane id=":1600625585_w0_0" index="0" allow="pedestrian" speed="1.00" length="4.28" width="2.00" shape="1200.57,1002.68 1202.12,1001.41 1199.43,997.48 1197.63,998.36 1197.16,1001.97 1198.94,1002.87 1200.30,1002.43 1200.00,1002.29 1199.70,1002.26 1199.42,1002.35 1199.16,1002.56"/>
    </edge>
    <edge id=":1600625624_w0" function="walkingarea">
        <lane id=":1600625624_w0_0" index="0" allow="pedestrian" speed="1.00" length="4.09" width="2.00" shape="1208.64,1033.26 1209.48,1031.44 1208.93,1029.55 1207.24,1028.47 1204.41,1032.17 1205.87,1033.54 1208.07,1033.00 1207.58,1032.85 1207.14,1032.80 1206.73,1032.89 1206.32,1033.13"/>
    </edge>
    <edge id=":1600625627_0" function="internal">
        <lane id=":1600625627_0_0" index="0" disallow="pedestrian tram rail_urban rail rail_electric rail_fast ship" speed="13.89" length="5.00" shape="1260.80,1030.57 1260.72,1035.57"/>
    </edge>
    <edge id=":1600625627_1" function="internal">
        <lane id=":1600625627_1_0" index="0" disallow="pedestrian tram rail_urban rail rail_electric rail_fast ship" speed="13.89" length="5.00" shape="1257.52,1035.52 1257.60,1030.52"/>
    </edge>
    <edge id=":1600625627_c0" function="crossing" crossingEdges="73540498#1 -73540498#1">
        <lane id=":1600625627_c0_0" index="0" allow="pedestrian" speed="1.00" length="6.40" width="4.00" shape="1255.97,1032.49 1262.37,1032.59"/>
    </edge>
    <edge id=":1600625627_w0" function="walkingarea">
        <lane id=":1600625627_w0_0" index="0" allow="pedestrian" speed="1.00" length="3.47" width="4.00" shape="1262.32,1035.59 1264.32,1035.62 1264.40,1030.62 1262.40,1030.59 1262.34,1034.59"/>
    </edge>
    <edge id=":1600625627_w1" function="walkingarea">
        <lane id=":1600625627_w1_0" index="0" allow="pedestrian" speed="1.00" length="3.52" width="4.00" shape="1255.94,1034.49 1256.00,1030.49 1254.00,1030.46 1252.40,1032.00 1252.45,1034.00 1253.92,1035.47 1255.92,1035.50"/>
    </edge>
    <edge id=":1600625669_w0" function="walkingarea">
        <lane id=":1600625669_w0_0" index="0" allow="pedestrian" speed="1.00" length="4.32" width="2.00" shape="1197.37,1042.69 1195.89,1041.34 1192.08,1044.31 1193.23,1045.95 1194.24,1046.57 1196.21,1046.87 1196.80,1043.40 1196.49,1044.01 1196.36,1044.57 1196.33,1045.19 1196.31,1045.92"/>
    </edge>
    <edge id=":1600625681_w0" function="walkingarea">
        <lane id=":1600625681_w0_0" index="0" allow="pedestrian" speed="1.00" length="4.20" width="2.00" shape="1172.45,1059.62 1173.94,1058.29 1174.31,1056.54 1173.47,1054.73 1168.98,1056.45 1169.53,1058.38 1171.97,1059.09 1171.56,1058.68 1171.17,1058.39 1170.73,1058.24 1170.20,1058.24"/>
    </edge>
    <edge id=":1600625703_w0" function="walkingarea">
        <lane id=":1600625703_w0_0" index="0" allow="pedestrian" speed="1.00" length="3.95" width="2.00" shape="1181.55,1065.58 1181.04,1063.64 1178.47,1063.37 1176.97,1064.70 1176.99,1066.96 1178.51,1068.26 1180.74,1065.85 1180.18,1066.16 1179.79,1066.54 1179.45,1067.00 1179.06,1067.57"/>
    </edge>
    <edge id=":1600625769_w0" function="walkingarea">
        <lane id=":1600625769_w0_0" index="0" allow="pedestrian" speed="1.00" length="4.10" width="2.00" shape="1190.24,1092.53 1191.96,1091.50 1190.17,1087.42 1188.23,1087.91 1187.04,1090.68 1188.32,1092.21 1189.98,1092.18 1189.69,1091.94 1189.37,1091.83 1189.04,1091.83 1188.69,1091.96"/>
    </edge>
    <edge id=":1600625826_w0" function="walkingarea">
        <lane id=":1600625826_w0_0" index="0" allow="pedestrian" speed="1.00" length="4.10" width="2.00" shape="1014.11,1103.26 1014.80,1101.39 1010.23,1099.56 1009.44,1101.39 1010.03,1103.26 1011.72,1104.31 1013.55,1103.11 1013.10,1103.09 1012.71,1103.21 1012.38,1103.45 1012.05,1103.82"/>
    </edge>
    <edge id=":1600625871_w0" function="walkingarea">
        <lane id=":1600625871_w0_0" index="0" allow="pedestrian" speed="1.00" length="3.64" width="2.00" shape="1193.90,1109.73 1195.52,1108.55 1195.23,1105.88 1193.38,1105.13 1191.32,1106.62 1191.44,1108.61 1193.54,1109.26 1193.21,1108.93 1192.88,1108.73 1192.50,1108.62 1192.04,1108.59"/>
    </edge>
    <edge id=":2232217260_0" function="internal">
        <lane id=":2232217260_0_0" index="0" allow="delivery bicycle" speed="9.72" length="16.43" shape="798.28,653.39 795.50,650.94 792.76,648.37 789.30,646.41 784.35,645.78"/>
    </edge>
    <edge id=":2232217260_1" function="internal">
        <lane id=":2232217260_1_0" index="0" allow="delivery bicycle" speed="7.63" length="21.64" shape="798.28,653.39 792.74,648.64 791.34,645.12 794.08,642.81 800.96,641.73"/>
    </edge>
    <edge id=":2232217260_2" function="internal">
        <lane id=":2232217260_2_0" index="0" allow="pedestrian delivery bicycle" speed="3.65" length="4.67" shape="798.28,653.39 797.76,652.05 797.89,651.16 798.68,650.74 800.12,650.77"/>
    </edge>
    <edge id=":2232217260_3" function="internal">
        <lane id=":2232217260_3_0" index="0" allow="delivery bicycle" speed="5.56" length="10.69" shape="801.13,644.93 797.82,645.46 796.55,646.62 797.31,648.39 800.12,650.77"/>
    </edge>
    <edge id=":2232217260_4" function="internal">
        <lane id=":2232217260_4_0" index="0" disallow="pedestrian tram rail_urban rail rail_electric rail_fast ship" speed="13.89" length="16.80" shape="801.13,644.93 784.35,645.78"/>
    </edge>
    <edge id=":2232217260_5" function="internal">
        <lane id=":2232217260_5_0" index="0" disallow="pedestrian tram rail_urban rail rail_electric rail_fast ship" speed="13.89" length="16.78" shape="784.21,642.58 800.96,641.73"/>
    </edge>
    <edge id=":2232217260_6" function="internal">
        <lane id=":2232217260_6_0" index="0" allow="delivery bicycle" speed="9.72" length="4.10" shape="784.21,642.58 788.28,643.09"/>
    </edge>
    <edge id=":2232217260_7" function="internal">
        <lane id=":2232217260_7_0" index="0" allow="delivery bicycle" speed="9.72" length="14.38" shape="788.28,643.09 789.89,643.29 793.99,645.45 797.17,648.22 800.12,650.77"/>
    </edge>
    <edge id=":2232217260_c0" function="crossing" crossingEdges="47026383#7 -47026383#7">
        <lane id=":2232217260_c0_0" index="0" allow="pedestrian" speed="1.00" length="6.40" width="4.00" shape="798.88,640.24 799.22,646.63"/>
    </edge>
    <edge id=":2232217260_w0" function="walkingarea">
        <lane id=":2232217260_w0_0" index="0" allow="pedestrian" speed="1.00" length="9.65" width="4.00" shape="784.42,647.37 784.50,649.37 785.85,650.42 787.83,650.69 797.36,654.70 799.20,652.08 799.20,652.08 801.05,649.47 801.32,648.52 801.21,646.53 797.22,646.74"/>
    </edge>
    <edge id=":2232217260_w1" function="walkingarea">
        <lane id=":2232217260_w1_0" index="0" allow="pedestrian" speed="1.00" length="10.24" width="4.00" shape="796.88,640.34 800.88,640.14 800.77,638.14 789.60,638.19 787.61,637.91 784.05,638.98 784.14,640.98"/>
    </edge>
    <edge id=":3603633057_w0" function="walkingarea">
        <lane id=":3603633057_w0_0" index="0" allow="pedestrian" speed="1.00" length="3.37" width="2.00" shape="706.13,909.92 704.14,909.87 702.51,911.39 702.53,913.39 704.03,913.56 706.03,913.63"/>
    </edge>
    <edge id=":3603633059_w0" function="walkingarea">
        <lane id=":3603633059_w0_0" index="0" allow="pedestrian" speed="1.00" length="3.40" width="2.00" shape="707.62,915.93 707.51,913.93 706.02,913.83 704.02,913.76 703.88,917.45 705.88,917.52 707.09,915.99 706.66,916.11 706.33,916.31 706.09,916.60 705.95,917.00"/>
    </edge>
    <edge id=":3603633060_w0" function="walkingarea">
        <lane id=":3603633060_w0_0" index="0" allow="pedestrian" speed="1.00" length="3.95" width="2.00" shape="735.32,922.96 736.99,921.86 735.23,917.90 733.30,918.42 732.30,920.43 733.04,922.29 735.00,922.53 734.68,922.24 734.35,922.08 733.98,922.04 733.55,922.11"/>
    </edge>
    <edge id=":3603633063_w0" function="walkingarea">
        <lane id=":3603633063_w0_0" index="0" allow="pedestrian" speed="1.00" length="3.94" width="2.00" shape="740.27,929.00 741.48,927.41 738.57,924.27 736.89,925.37 736.61,927.68 737.99,929.12 739.84,928.71 739.46,928.55 739.10,928.51 738.75,928.59 738.38,928.79"/>
    </edge>
    <edge id=":3603633064_w0" function="walkingarea">
        <lane id=":3603633064_w0_0" index="0" allow="pedestrian" speed="1.00" length="4.03" width="2.00" shape="708.39,933.81 710.24,933.05 711.07,931.10 710.32,929.25 708.35,928.42 706.50,929.18"/>
    </edge>
    <edge id=":3603633065_w0" function="walkingarea">
        <lane id=":3603633065_w0_0" index="0" allow="pedestrian" speed="1.00" length="3.88" width="2.00" shape="746.87,932.56 747.20,930.59 743.58,929.02 742.37,930.60 742.94,932.88 744.76,933.71 746.34,932.50 745.91,932.53 745.56,932.65 745.26,932.88 745.00,933.23"/>
    </edge>
    <edge id=":3603633066_w0" function="walkingarea">
        <lane id=":3603633066_w0_0" index="0" allow="pedestrian" speed="1.00" length="4.00" width="2.00" shape="743.39,937.99 745.03,936.85 744.62,934.00 742.81,933.17 740.48,937.71 742.23,938.68 743.19,937.81 742.99,937.79 742.79,937.90 742.59,938.11 742.40,938.38"/>
    </edge>
    <edge id=":3603633068_w0" function="walkingarea">
        <lane id=":3603633068_w0_0" index="0" allow="pedestrian" speed="1.00" length="4.14" width="2.00" shape="745.01,941.68 747.00,941.56 747.96,936.87 746.07,936.23 745.15,937.02 743.51,938.16 744.93,940.87 744.81,940.27 744.62,939.79 744.35,939.35 743.99,938.83"/>
    </edge>
    <edge id=":3603633069_w0" function="walkingarea">
        <lane id=":3603633069_w0_0" index="0" allow="pedestrian" speed="1.00" length="4.06" width="2.00" shape="719.65,948.96 720.99,947.47 720.96,945.43 719.57,943.99 717.27,944.12 715.93,945.60"/>
    </edge>
    <edge id=":3603633074_w0" function="walkingarea">
        <lane id=":3603633074_w0_0" index="0" allow="pedestrian" speed="1.00" length="3.72" width="2.00" shape="732.32,958.46 733.32,956.73 733.28,954.90 731.53,953.93 729.53,954.45 728.48,956.15"/>
    </edge>
    <edge id=":3603633075_w0" function="walkingarea">
        <lane id=":3603633075_w0_0" index="0" allow="pedestrian" speed="1.00" length="3.88" width="2.00" shape="737.13,957.68 735.63,956.36 733.49,956.83 732.50,958.56 732.20,960.67 734.16,961.07 736.42,958.37 735.80,958.82 735.26,959.18 734.80,959.59 734.44,960.17"/>
    </edge>
    <edge id=":4717969047_w0" function="walkingarea">
        <lane id=":4717969047_w0_0" index="0" allow="pedestrian" speed="1.00" length="3.96" width="2.00" shape="1186.84,1082.42 1188.77,1081.93 1189.69,1079.62 1188.72,1077.87 1184.67,1079.23 1184.98,1081.21 1186.68,1081.95 1186.48,1081.59 1186.22,1081.35 1185.89,1081.20 1185.48,1081.16"/>
    </edge>
    <edge id=":4717969726_w0" function="walkingarea">
        <lane id=":4717969726_w0_0" index="0" allow="pedestrian" speed="1.00" length="3.68" width="2.00" shape="779.36,764.71 780.76,763.29 780.66,760.68 778.77,760.03 776.65,762.29 777.05,764.25 778.98,764.37 778.64,764.17 778.32,764.08 777.97,764.08 777.56,764.14"/>
    </edge>
    <edge id=":4912284168_w0" function="walkingarea">
        <lane id=":4912284168_w0_0" index="0" allow="pedestrian" speed="1.00" length="3.75" width="2.00" shape="1246.67,885.46 1245.80,883.66 1241.86,884.43 1241.82,886.43 1243.31,887.51 1245.31,887.52 1246.19,885.71 1245.83,885.96 1245.58,886.23 1245.42,886.56 1245.34,886.98"/>
    </edge>
    <edge id=":4912284222_w0" function="walkingarea">
        <lane id=":4912284222_w0_0" index="0" allow="pedestrian" speed="1.00" length="4.40" width="2.00" shape="1251.43,834.59 1253.43,834.58 1253.49,829.29 1251.49,829.25 1250.20,829.96 1249.13,831.65 1251.36,833.79 1251.18,833.22 1250.87,832.79 1250.43,832.44 1249.85,832.08"/>
    </edge>
    <edge id=":5367573437_w0" function="walkingarea">
        <lane id=":5367573437_w0_0" index="0" allow="pedestrian" speed="1.00" length="4.04" width="2.00" shape="380.98,542.37 380.98,540.37 379.46,538.85 377.46,538.88 375.98,540.37 375.97,542.37 377.45,543.88 379.45,543.91 380.50,542.41 380.11,542.53 379.82,542.74 379.62,543.03 379.50,543.42"/>
    </edge>
    <edge id=":5367573462_w0" function="walkingarea">
        <lane id=":5367573462_w0_0" index="0" allow="pedestrian" speed="1.00" length="4.24" width="2.00" shape="382.83,396.97 383.34,395.04 381.36,392.81 379.36,392.83 377.80,394.40 377.88,396.39 379.37,398.08 381.37,398.09 382.41,396.91 382.05,396.95 381.77,397.10 381.55,397.34 381.42,397.67"/>
    </edge>
    <edge id=":5367573517_w0" function="walkingarea">
        <lane id=":5367573517_w0_0" index="0" allow="pedestrian" speed="1.00" length="4.03" width="2.00" shape="379.61,648.08 379.61,646.08 378.11,644.56 376.11,644.56 374.61,646.04 374.58,648.04 376.09,649.56 378.09,649.58 379.13,648.11 378.74,648.23 378.45,648.43 378.25,648.72 378.13,649.10"/>
    </edge>
    <edge id=":5367573518_w0" function="walkingarea">
        <lane id=":5367573518_w0_0" index="0" allow="pedestrian" speed="1.00" length="4.06" width="2.00" shape="376.11,637.60 378.11,637.60 379.61,636.11 379.65,634.12 378.15,632.59 376.15,632.56 374.55,634.15 374.61,636.15 376.07,637.13 375.96,636.75 375.75,636.47 375.47,636.28 375.09,636.17"/>
    </edge>
    <edge id=":5367573625_w0" function="walkingarea">
        <lane id=":5367573625_w0_0" index="0" allow="pedestrian" speed="1.00" length="4.08" width="2.00" shape="377.95,739.14 377.97,737.14 376.56,735.63 374.57,735.50 372.87,737.14 372.89,739.14 374.38,740.63 376.38,740.64 377.45,739.17 377.06,739.29 376.76,739.48 376.55,739.77 376.43,740.16"/>
    </edge>
    <edge id=":5368781230_w0" function="walkingarea">
        <lane id=":5368781230_w0_0" index="0" allow="pedestrian" speed="1.00" length="4.03" width="2.00" shape="116.50,634.02 116.52,632.02 115.00,630.51 113.00,630.51 113.00,635.50 115.00,635.51 116.02,634.05 115.64,634.17 115.35,634.36 115.15,634.65 115.04,635.03"/>
    </edge>
    <edge id=":5368781634_w0" function="walkingarea">
        <lane id=":5368781634_w0_0" index="0" allow="pedestrian" speed="1.00" length="4.87" width="2.00" shape="116.93,646.67 116.44,644.73 114.99,643.60 112.99,643.60 110.49,645.33 110.46,647.33 111.01,648.81 112.85,649.61 115.85,646.94 115.01,647.19 114.35,647.51 113.81,647.96 113.33,648.63"/>
    </edge>
    <edge id=":5368781784_w0" function="walkingarea">
        <lane id=":5368781784_w0_0" index="0" allow="pedestrian" speed="1.00" length="4.03" width="2.00" shape="462.35,649.53 464.35,649.53 465.87,648.00 465.84,646.00 464.34,644.51 462.34,644.52 460.84,646.03 460.85,648.03 462.31,649.05 462.19,648.67 461.99,648.38 461.71,648.18 461.32,648.06"/>
    </edge>
    <edge id=":5368781785_w0" function="walkingarea">
        <lane id=":5368781785_w0_0" index="0" allow="pedestrian" speed="1.00" length="4.05" width="2.00" shape="462.32,639.20 464.32,639.20 465.82,637.70 465.83,635.70 464.32,634.17 462.32,634.17 460.82,635.64 460.78,637.64 462.28,638.71 462.16,638.31 461.96,638.02 461.67,637.81 461.27,637.69"/>
    </edge>
    <edge id=":5368781800_w0" function="walkingarea">
        <lane id=":5368781800_w0_0" index="0" allow="pedestrian" speed="1.00" length="2.80" width="2.00" shape="686.44,887.12 684.44,887.10 684.41,890.10 686.41,890.11 687.64,887.53 687.71,889.53"/>
    </edge>
    <edge id=":5368781801_w0" function="walkingarea">
        <lane id=":5368781801_w0_0" index="0" allow="pedestrian" speed="1.00" length="2.76" width="2.00" shape="686.28,905.95 684.28,905.93 684.26,908.93 686.26,908.95 687.68,907.22 687.03,909.11"/>
    </edge>
    <edge id=":5368782345_w0" function="walkingarea">
        <lane id=":5368782345_w0_0" index="0" allow="pedestrian" speed="1.00" length="2.49" width="2.00" shape="684.94,1134.44 684.96,1132.44 683.13,1132.43 683.11,1134.43 680.62,1135.62 682.23,1136.80 684.46,1134.19 682.46,1134.21 684.33,1134.51 683.75,1134.65 683.24,1134.79 682.83,1134.82 682.56,1134.66"/>
    </edge>
    <edge id=":5368782346_w0" function="walkingarea">
        <lane id=":5368782346_w0_0" index="0" allow="pedestrian" speed="1.00" length="2.15" width="2.00" shape="682.29,1115.66 684.28,1115.64 686.18,1117.56 686.19,1115.56 684.82,1115.12 684.67,1117.11 684.30,1114.52 682.30,1114.50"/>
    </edge>
    <edge id=":5368782351_w0" function="walkingarea">
        <lane id=":5368782351_w0_0" index="0" allow="pedestrian" speed="1.00" length="2.34" width="2.00" shape="689.46,746.32 689.08,744.36 687.61,744.87 685.61,744.83 685.58,747.34 687.58,747.36 688.45,744.85 688.46,746.85"/>
    </edge>
    <edge id=":5368782352_w0" function="walkingarea">